1

   Abaqus 3DEXPERIENCE R2019x                                  Date 01-May-2020   Time 21:09:02
   For use by TEXAS A_M UNIVERSITY SYSTEM under license from Dassault Systemes or its subsidiary.



                         The Abaqus Software is a product of:

                           Dassault Systemes SIMULIA Corp.
                           1301 Atwood Avenue, Suite 101W
                              Johnston, RI 02919, USA
 


                   The Abaqus Software is available only under license
                   from Dassault Systemes or its subsidiary and may be
                   used or reproduced only in accordance with the terms
                   of such license.
 
                          On machine AERO-MJ09CBE4 
                          you are authorized to run
                          Abaqus/Standard until 11-Jul-2021

                          Your site id is: 200000000002185 


 
                    For assistance or any other information you may
                    obtain contact information for your local office
                    from the world wide web at:

                      http://www.3ds.com/products/simulia/locations/

 
                * * * * * * * * * * * * * * * * * * * * * * * * * * * * * * 
                *                                                         * 
                *                   *****************                     * 
                *                   *  N O T I C E  *                     * 
                *                   *****************                     * 
                *                                                         * 
                *                                                         * 
                *               Abaqus 3DEXPERIENCE R2019x                * 
                *                                                         * 
                *          BUILD ID: 2018_09_24-13.41.51 157541           * 
                *                                                         * 
                *                                                         * 
                *  Please make sure you are using                         * 
                *  release 3DEXPERIENCE R2019x manuals                    * 
                *  plus the notes accompanying this release.              * 
                *                                                         * 
                *                                                         * 
                *                                                         * 
                *                                                         * 
                *                                                         * 
                *   This program may not be used for commercial purposes  * 
                *           without payment of a commercial fee.          * 
                *                                                         * 
                * * * * * * * * * * * * * * * * * * * * * * * * * * * * * * 


 



     PROCESSING PART, INSTANCE, AND ASSEMBLY INFORMATION
   *******************************************************


 ***ERROR: in keyword *RIGIDBODY, file "Buckling_job_1_3.inp", line 172437: 
           Unknown assembly set TOP_SET_PIN
 ***NOTE: DUE TO AN INPUT ERROR THE ANALYSIS PRE-PROCESSOR HAS BEEN UNABLE TO 
          INTERPRET SOME DATA.  SUBSEQUENT ERRORS MAY BE CAUSED BY THIS OMISSION

 ***ERROR: in keyword *RIGIDBODY, file "Buckling_job_1_3.inp", line 172439: 
           Unknown assembly set BOTTOM_SET_PIN

 ***ERROR: in keyword *BOUNDARY, file "Buckling_job_1_3.inp", line 172461: 
           Unknown assembly node set BOTTOM_SET_PIN

 ***ERROR: in keyword *BOUNDARY, file "Buckling_job_1_3.inp", line 172463: 
           Unknown assembly node set BOTTOM_SET_PIN

 ***ERROR: in keyword *BOUNDARY, file "Buckling_job_1_3.inp", line 172466: 
           Unknown assembly node set TOP_SET_PIN

 ***ERROR: in keyword *BOUNDARY, file "Buckling_job_1_3.inp", line 172466: 
           Unknown assembly node set TOP_SET_PIN

 ***ERROR: in keyword *BOUNDARY, file "Buckling_job_1_3.inp", line 172469: 
           Unknown assembly node set TOP_SET_PIN

 ***ERROR: in keyword *BOUNDARY, file "Buckling_job_1_3.inp", line 172469: 
           Unknown assembly node set TOP_SET_PIN

     END PROCESSING PART, INSTANCE, AND ASSEMBLY INFORMATION
   ***********************************************************




     OPTIONS BEING PROCESSED
   ***************************


  *Heading
  *Node
  *Element, type=C3D4
  *Nset, nset=ASSEMBLY_PART-1-1_FIBRE_SET2
  *Nset, nset=ASSEMBLY_PART-1-1_FIBRE_SET3
  *Elset, elset=ASSEMBLY_PART-1-1_FIBRE_SET2
  *Elset, elset=ASSEMBLY_PART-1-1_FIBRE_SET3
  *Node
  *Nset, nset=ASSEMBLY__PICKEDSET19
  *Nset, nset=ASSEMBLY__PICKEDSET21

 ***WARNING: BUCKLE OPTION IS NOT SUPPORTED FOR ELEMENT LOOP PARALLELIZATION. 
             IF YOU HAVE SPECIFIED ELEMENT LOOP PARALLELIZATION, IT WILL BE 
             TURNED OFF FOR THIS ANALYSIS.
 LINE IMAGE: *buckle
  *material, name=FIBRE_MATERIAL
  *elastic
  *material, name=MATRIX_MATERIAL
  *elastic
  *solidsection, elset=ASSEMBLY_PART-1-1_FIBRE_SET2, material=FIBRE_MATERIAL
  *solidsection, elset=ASSEMBLY_PART-1-1_FIBRE_SET3, material=FIBRE_MATERIAL
  *solidsection, elset=ASSEMBLY_PART-1-1_FIBRE_SET2, material=FIBRE_MATERIAL
  *solidsection, elset=ASSEMBLY_PART-1-1_FIBRE_SET3, material=FIBRE_MATERIAL
  *rigidbody, refnode=ASSEMBLY__PICKEDSET19, pinnset=ASSEMBLY_TOP_SET_PIN
  *rigidbody, refnode=ASSEMBLY__PICKEDSET21, pinnset=ASSEMBLY_BOTTOM_SET_PIN
  *rigidbody, refnode=ASSEMBLY__PICKEDSET19, pinnset=ASSEMBLY_TOP_SET_PIN
  *rigidbody, refnode=ASSEMBLY__PICKEDSET21, pinnset=ASSEMBLY_BOTTOM_SET_PIN
  *rigidbody, refnode=ASSEMBLY__PICKEDSET19, pinnset=ASSEMBLY_TOP_SET_PIN
  *rigidbody, refnode=ASSEMBLY__PICKEDSET21, pinnset=ASSEMBLY_BOTTOM_SET_PIN
  *rigidbody, refnode=ASSEMBLY__PICKEDSET19, pinnset=ASSEMBLY_TOP_SET_PIN

 ***ERROR: NODE SET ASSEMBLY_TOP_SET_PIN HAS NOT BEEN DEFINED
  *rigidbody, refnode=ASSEMBLY__PICKEDSET21, pinnset=ASSEMBLY_BOTTOM_SET_PIN

 ***ERROR: NODE SET ASSEMBLY_BOTTOM_SET_PIN HAS NOT BEEN DEFINED
  *rigidbody, refnode=ASSEMBLY__PICKEDSET19, pinnset=ASSEMBLY_TOP_SET_PIN

 ***ERROR: NODE SET ASSEMBLY_TOP_SET_PIN HAS NOT BEEN DEFINED

 ***ERROR: UNABLE TO LOCATE NODE SET ASSEMBLY_TOP_SET_PIN. THE NODE SET MUST 
           HAVE BEEN PREVIOUSLY DEFINED. NODES IN THIS NODE SET WILL NOT BE 
           PART OF RIGID BODY
 LINE IMAGE: *rigidbody, refnode=ASSEMBLY__PICKEDSET19, 
             pinnset=ASSEMBLY_TOP_SET_PIN
  *rigidbody, refnode=ASSEMBLY__PICKEDSET21, pinnset=ASSEMBLY_BOTTOM_SET_PIN

 ***ERROR: NODE SET ASSEMBLY_BOTTOM_SET_PIN HAS NOT BEEN DEFINED

 ***ERROR: UNABLE TO LOCATE NODE SET ASSEMBLY_BOTTOM_SET_PIN. THE NODE SET MUST 
           HAVE BEEN PREVIOUSLY DEFINED. NODES IN THIS NODE SET WILL NOT BE 
           PART OF RIGID BODY
 LINE IMAGE: *rigidbody, refnode=ASSEMBLY__PICKEDSET21, 
             pinnset=ASSEMBLY_BOTTOM_SET_PIN

 ***ERROR: SURFACE DEFINITION ASSEMBLY_TOP_SURFACE NOT FOUND.
  *rigidbody, refnode=ASSEMBLY__PICKEDSET19, pinnset=ASSEMBLY_TOP_SET_PIN
  *rigidbody, refnode=ASSEMBLY__PICKEDSET21, pinnset=ASSEMBLY_BOTTOM_SET_PIN
  *rigidbody, refnode=ASSEMBLY__PICKEDSET19, pinnset=ASSEMBLY_TOP_SET_PIN

 ***ERROR: NODE SET ASSEMBLY_TOP_SET_PIN HAS NOT BEEN DEFINED

 ***ERROR: UNABLE TO LOCATE NODE SET ASSEMBLY_TOP_SET_PIN. THE NODE SET MUST 
           HAVE BEEN PREVIOUSLY DEFINED. NODES IN THIS NODE SET WILL NOT BE 
           PART OF RIGID BODY
 LINE IMAGE: *rigidbody, refnode=ASSEMBLY__PICKEDSET19, 
             pinnset=ASSEMBLY_TOP_SET_PIN
  *rigidbody, refnode=ASSEMBLY__PICKEDSET21, pinnset=ASSEMBLY_BOTTOM_SET_PIN

 ***ERROR: NODE SET ASSEMBLY_BOTTOM_SET_PIN HAS NOT BEEN DEFINED

 ***ERROR: UNABLE TO LOCATE NODE SET ASSEMBLY_BOTTOM_SET_PIN. THE NODE SET MUST 
           HAVE BEEN PREVIOUSLY DEFINED. NODES IN THIS NODE SET WILL NOT BE 
           PART OF RIGID BODY
 LINE IMAGE: *rigidbody, refnode=ASSEMBLY__PICKEDSET21, 
             pinnset=ASSEMBLY_BOTTOM_SET_PIN
  *boundary, op=NEW, loadcase=1
  *boundary, op=NEW, loadcase=2
  *boundary, op=NEW, loadcase=1
  *boundary, op=NEW, loadcase=2
  *boundary, op=NEW, loadcase=1
  *boundary, op=NEW, loadcase=2
  *boundary, op=NEW, loadcase=1
  *boundary, op=NEW, loadcase=2
  *rigidbody, refnode=ASSEMBLY__PICKEDSET19, pinnset=ASSEMBLY_TOP_SET_PIN
  *rigidbody, refnode=ASSEMBLY__PICKEDSET21, pinnset=ASSEMBLY_BOTTOM_SET_PIN
  *output, field, variable=PRESELECT
  *output, field, variable=PRESELECT
  *output, field, variable=PRESELECT

 ***ERROR: NODE SET ASSEMBLY_TOP_SET_PIN HAS NOT BEEN DEFINED

 ***ERROR: NODE SET ASSEMBLY_BOTTOM_SET_PIN HAS NOT BEEN DEFINED
  
                               E L E M E N T   Q U A L I T Y  C H E C K S        
  
  
 ***NOTES: DISTORTED ISOPARAMETRIC ELEMENTS: ANGLE BETWEEN ISOPARAMETRIC LINES 
           IS LESS THAN 45 DEGREES OR GREATER THAN 135 DEGREES.
  
           TETRAHEDRAL QUALITY MEASURE: VOLUME OF TETRAHEDRON DIVIDED BY THE 
           VOLUME OF EQUILATERAL TETRAHEDRON WITH SAME CIRCUMSPHERE RADIUS; 
           0 FOR DEGENERATE TETRAHEDRON AND 1 FOR EQUILATERIAL TETRAHEDRON. IT 
           IS RECOMMENDED THAT THE TETRAHEDRAL QUALITY MEASURE BE GREATER THAN 
           0.02, THE MIN INTERIOR (DIHEDRAL) ANGLE BE GREATER THAN 10 DEGREES, 
           AND THE MAX INTERIOR (DIHEDRAL) ANGLE BE LESS THAN 160 DEGREES. 
  
           MODIFIED TETRAHEDRAL QUALITY MEASURE: ANGLES BETWEEN THE TWO LINE 
           SEGMENTS ON EACH EDGE; THE EDGES OF MODIFIED TETRAHEDRAL SHOULD BE 
           AS STRAIGHT AS POSSIBLE. IT IS RECOMMENDED THAT THE ANGLE BETWEEN 
           THE TWO LINE SEGMENTS ON EACH EDGE IS BETWEEN 160 AND 180 DEGREES. 
  
           TRIANGULAR QUALITY MEASURE: AREA OF TRIANGLE DIVIDED BY THE AREA OF 
           EQUILATERAL TRIANGLE WITH SAME CIRCUMCIRCLE RADIUS; 0 FOR DEGENERATE 
           TRIANGLE AND 1 FOR EQUILATERAL TRIANGLE. IT IS RECOMMENDED THAT THE
           TRIANGULAR QUALITY MEASURE BE GREATER THAN 0.01, THE MIN INTERIOR 
           ANGLE BE GREATER THAN 10 DEGREES, AND THE MAX INTERIOR ANGLE BE LESS 
           THAN 160 DEGREES. 
  
           NODAL ADJUSTMENTS ARISING FROM CONTACT INTERACTIONS AND/OR TIE 
           CONSTRAINTS CAN CAUSE SEVERE ELEMENT DISTORTION. IT MAY BE NECESSARY 
           TO REMESH IN ORDER TO REDUCE THE AMOUNT OF ADJUSTMENT. 

 ***WARNING: 774 elements are distorted. Either the isoparametric angles are 
             out of the suggested limits or the triangular or tetrahedral 
             quality measure is bad. The elements have been identified in 
             element set WarnElemDistorted.

 ***ERROR: The volume of 13 elements is zero, small, or negative. Check 
           coordinates or node numbering, or modify the mesh seed. In the case 
           of a tetrahedron this error may indicate that all nodes are located 
           very nearly in a plane. The elements have been identified in element 
           set ErrElemVolSmallNegZero.
  
 --------------------------------------------------------------------------------
 Distorted tetrahedral elements
  
      Element       Quality measure     Min angle        Max angle     Adjusted nodes 
 ------------------ ---------------- ---------------- ---------------- -------------- 
        PART-1-1.66         0.204645           12.348          161.875       NO       
       PART-1-1.123         0.155508          10.1645          164.212       NO       
       PART-1-1.128         0.166927          13.2537          160.033       NO       
       PART-1-1.273        0.0631932          11.6148          163.486       NO       
       PART-1-1.275        0.0155916            10.61          161.833       NO       
       PART-1-1.299        0.0360486          14.0473          162.016       NO       
       PART-1-1.314         0.154832          11.7477          162.846       NO       
       PART-1-1.456        0.0581436          10.9916          163.064       NO       
       PART-1-1.474        0.0594611          10.0667          164.755       NO       
       PART-1-1.482         0.132414          9.24949          165.867       NO       
       PART-1-1.607         0.120331           10.804          162.942       NO       
       PART-1-1.696        0.0920859          12.1287          162.561       NO       
       PART-1-1.705        0.0138132          17.0563           159.24       NO       
       PART-1-1.722         0.213775          12.9459          161.034       NO       
       PART-1-1.725         0.155937            9.395          146.188       NO       
       PART-1-1.840       0.00596152          13.9628          165.042       NO       
       PART-1-1.880        0.0665328          14.3723          160.625       NO       
       PART-1-1.982         0.177215          12.0052          162.993       NO       
      PART-1-1.1024         0.103426          11.9114          162.953       NO       
      PART-1-1.1028         0.203795          12.4657          161.682       NO       
      PART-1-1.1211        0.0191251          14.1913          162.945       NO       
      PART-1-1.1255       0.00810529          12.0438          156.787       NO       
      PART-1-1.1331        0.0139575          11.3103           165.72       NO       
      PART-1-1.1590        0.0989121           13.925          160.671       NO       
      PART-1-1.1771       0.00778081          21.2098          159.872       NO       
      PART-1-1.1922        0.0105196          14.5476          157.009       NO       
      PART-1-1.1993        0.0342574          11.4457           162.29       NO       
      PART-1-1.2070          0.02669          12.3914           161.64       NO       
      PART-1-1.2196         0.162327          11.2271          160.692       NO       
      PART-1-1.2226        0.0947032          15.0316          160.018       NO       
      PART-1-1.2318        0.0582694          15.2018          160.513       NO       
      PART-1-1.2347       0.00502803          13.9286          165.164       NO       
      PART-1-1.2576        0.0460014          11.6095          162.714       NO       
      PART-1-1.2635        0.0564667          13.8456          161.321       NO       
      PART-1-1.3297        0.0192626           33.045          140.449       NO       
      PART-1-1.3622        0.0164665          23.1616          156.251       NO       
      PART-1-1.3703        0.0216413          11.4463          165.058       NO       
      PART-1-1.3762        0.0111819          25.0233          157.136       NO       
      PART-1-1.3788        0.0789205          9.22894          164.843       NO       
      PART-1-1.3993        0.0148223          11.5399          163.742       NO       
      PART-1-1.3994         0.011867          20.0137          158.698       NO       
      PART-1-1.3999        0.0557062          8.81034          161.593       NO       
      PART-1-1.4041       0.00652245          12.9097          163.901       NO       
      PART-1-1.4244        0.0661809          14.5875           160.35       NO       
      PART-1-1.4256        0.0196289          19.8852          156.076       NO       
      PART-1-1.4337        0.0317457          15.0736          161.748       NO       
      PART-1-1.4478       0.00831624          26.4703          156.122       NO       
      PART-1-1.4545       0.00820205          18.4883          161.102       NO       
      PART-1-1.4624        0.0187009          17.1246          158.549       NO       
      PART-1-1.4938        0.0949076          13.1482          161.816       NO       
      PART-1-1.5012        0.0311463          12.7162          162.881       NO       
      PART-1-1.5024         0.179349          9.93553          157.356       NO       
      PART-1-1.5083         0.142132          11.9703          160.797       NO       
      PART-1-1.5127        0.0177956           15.024           161.86       NO       
      PART-1-1.5227         0.172576          11.1134          161.674       NO       
      PART-1-1.5631        0.0103824          19.9751           156.76       NO       
      PART-1-1.5654        0.0664564          14.8869          160.102       NO       
      PART-1-1.5917        0.0567291          15.1496          160.754       NO       
      PART-1-1.5976        0.0819206          11.9936          161.672       NO       
      PART-1-1.6104         0.104893          11.7724          160.234       NO       
      PART-1-1.6240          0.14235          9.19797          151.829       NO       
      PART-1-1.6368        0.0888789          12.0142          162.112       NO       
      PART-1-1.6418        0.0462616          15.7191          160.012       NO       
      PART-1-1.6438         0.107383          9.22582          164.934       NO       
      PART-1-1.6602        0.0117586          13.4104          159.181       NO       
      PART-1-1.6851        0.0127527          19.3849          156.572       NO       
      PART-1-1.6958        0.0184953          13.7225          156.776       NO       
      PART-1-1.7044         0.132747          9.19733          164.545       NO       
      PART-1-1.7100       0.00721345          21.8375          159.947       NO       
      PART-1-1.7536       0.00398066          32.2007          158.856       NO       
      PART-1-1.7556        0.0516238          14.4501          160.493       NO       
      PART-1-1.7558        0.0726693          11.7411          163.009       NO       
      PART-1-1.7965        0.0412897          13.7227          160.948       NO       
      PART-1-1.7993       0.00659852          17.8873          159.558       NO       
      PART-1-1.8087         0.163889          11.2568          160.748       NO       
      PART-1-1.8432        0.0552034          12.3397          161.043       NO       
      PART-1-1.8853        0.0132453          15.8987          162.075       NO       
      PART-1-1.8856       0.00470374          14.8548          162.449       NO       
      PART-1-1.9245        0.0771776          10.2382          163.341       NO       
      PART-1-1.9328        0.0945942          9.08858          164.176       NO       
      PART-1-1.9440        0.0115304          19.1916           160.09       NO       
      PART-1-1.9701       0.00374844          30.8923          159.353       NO       
      PART-1-1.9711        0.0198769          19.6555          152.662       NO       
      PART-1-1.9783        0.0330094          11.9041          162.647       NO       
     PART-1-1.10098        0.0436746          9.89216          158.267       NO       
     PART-1-1.10226        0.0168956          22.9091          157.483       NO       
     PART-1-1.10500        0.0198524            18.52          158.927       NO       
     PART-1-1.11566        0.0486428           13.529          161.781       NO       
     PART-1-1.11610         0.065653          10.3324          163.567       NO       
     PART-1-1.11802        0.0126767           10.452          163.028       NO       
     PART-1-1.11977        0.0522911          11.8892           162.66       NO       
     PART-1-1.11983        0.0143506          23.6992          157.423       NO       
     PART-1-1.12003        0.0103839          20.4393          148.632       NO       
     PART-1-1.12014       0.00561762          20.9825          156.892       NO       
     PART-1-1.12192        0.0562154          10.4935          165.288       NO       
     PART-1-1.12214       0.00574041          17.2292          163.195       NO       
     PART-1-1.12381         0.176505            10.78          163.048       NO       
     PART-1-1.12398        0.0133053          24.5253          150.253       NO       
     PART-1-1.12413        0.0120518          23.7566          151.578       NO       
     PART-1-1.12422         0.165238          11.2293          160.663       NO       
     PART-1-1.12597         0.177269          13.5286          160.388       NO       
     PART-1-1.12611        0.0556811          13.8038          160.717       NO       
     PART-1-1.12693       0.00510328          21.3026          158.485       NO       
     PART-1-1.12715        0.0371438          11.6459          162.121       NO       
     PART-1-1.12723        0.0597249          14.4093          160.671       NO       
     PART-1-1.13039       0.00663933          16.6585          162.181       NO       
     PART-1-1.13222       0.00552281          21.2605          157.932       NO       
     PART-1-1.13234        0.0198883           23.139          144.125       NO       
     PART-1-1.13237        0.0149297          19.0333          145.751       NO       
     PART-1-1.13326        0.0228728          13.1838          160.903       NO       
     PART-1-1.13698         0.180165          10.7072          160.499       NO       
     PART-1-1.13744       0.00607339          16.8556          154.745       NO       
     PART-1-1.13790        0.0141341          24.4495          156.966       NO       
     PART-1-1.13791        0.0180942          20.1701           146.48       NO       
     PART-1-1.13821        0.0128595          20.0568          148.693       NO       
     PART-1-1.14004         0.016721          23.4952          144.484       NO       
     PART-1-1.14343       0.00750421          21.8113           149.93       NO       
     PART-1-1.14475        0.0149413          13.2145          157.663       NO       
     PART-1-1.14512        0.0103802          22.2938          147.416       NO       
     PART-1-1.14657        0.0718002          11.2521          161.325       NO       
     PART-1-1.14785        0.0123199          19.7877          156.066       NO       
     PART-1-1.14805        0.0131419          16.8549          148.007       NO       
     PART-1-1.15018         0.014384           15.144          151.191       NO       
     PART-1-1.15117        0.0149375          18.8655           159.16       NO       
     PART-1-1.15204        0.0124236          14.8548          152.593       NO       
     PART-1-1.15509        0.0195924          21.2394          155.388       NO       
     PART-1-1.15547         0.110015          9.16591          164.998       NO       
     PART-1-1.15589        0.0248236          10.7463          165.204       NO       
     PART-1-1.15742        0.0158072          12.6426          164.564       NO       
     PART-1-1.15770         0.061703           12.134          162.352       NO       
     PART-1-1.15994        0.0101931          21.2645          148.143       NO       
     PART-1-1.16028         0.015879          25.2516          152.115       NO       
     PART-1-1.16146        0.0158562          17.1014          160.841       NO       
     PART-1-1.16181        0.0132985          12.2962          158.804       NO       
     PART-1-1.16447        0.0564345          12.3028          160.462       NO       
     PART-1-1.16584       0.00768328          20.6036          159.771       NO       
     PART-1-1.17466          0.16963          12.5681          160.415       NO       
     PART-1-1.17585        0.0153676          22.4379          142.424       NO       
     PART-1-1.17612         0.162827          11.4954          160.504       NO       
     PART-1-1.17620        0.0154102          17.3508          146.066       NO       
     PART-1-1.17877        0.0888682          13.5493           161.23       NO       
     PART-1-1.18363       0.00237311          14.9136          159.018       NO       
     PART-1-1.18861        0.0407083          15.1865          160.688       NO       
     PART-1-1.18951         0.214159          12.4406          160.576       NO       
     PART-1-1.19068        0.0103552          20.3907          148.659       NO       
     PART-1-1.19174        0.0165031          21.8836          150.857       NO       
     PART-1-1.19406        0.0186098          23.1946          144.504       NO       
     PART-1-1.19434        0.0505803          11.6819          161.493       NO       
     PART-1-1.19815        0.0123633          18.9304          149.704       NO       
     PART-1-1.20277        0.0151473          20.6739          146.973       NO       
     PART-1-1.20288        0.0108633          15.5965          152.341       NO       
     PART-1-1.20518        0.0146245           22.144          153.155       NO       
     PART-1-1.20526        0.0183601           20.374          146.144       NO       
     PART-1-1.20667       0.00224583           17.653          163.973       NO       
     PART-1-1.20698        0.0178545          17.0473          146.512       NO       
     PART-1-1.21020        0.0173943          14.7094          162.106       NO       
     PART-1-1.21199        0.0134398          24.2506          151.218       NO       
     PART-1-1.21211        0.0152102          17.2998          145.978       NO       
     PART-1-1.21337          0.15546          13.2331          160.422       NO       
     PART-1-1.21341        0.0258695           14.831          160.056       NO       
     PART-1-1.21389       0.00320789          9.80773          161.761       NO       
     PART-1-1.21403       0.00348709          10.1304          160.313       NO       
     PART-1-1.21569       0.00745957          12.8456          154.929       NO       
     PART-1-1.21588        0.0160823          15.6058          150.091       NO       
     PART-1-1.21685        0.0113001          23.1531          146.337       NO       
     PART-1-1.21686        0.0112507          21.3361          150.735       NO       
     PART-1-1.21691        0.0120582          18.3437          159.339       NO       
     PART-1-1.21873        0.0169394          23.5912          143.728       NO       
     PART-1-1.22259        0.0823293          12.8206          160.655       NO       
     PART-1-1.22385        0.0197257          21.0121          145.304       NO       
     PART-1-1.22728        0.0164075          21.7616          157.443       NO       
     PART-1-1.22837        0.0179731           30.433           151.03       NO       
     PART-1-1.23019        0.0168896          23.6955          143.679       NO       
     PART-1-1.23046        0.0246731          12.3213          162.857       NO       
     PART-1-1.23073         0.193566          9.25644          151.811       NO       
     PART-1-1.23087         0.148879          10.5869          162.183       NO       
     PART-1-1.23177        0.0110875          16.9449          148.399       NO       
     PART-1-1.23189        0.0089954          20.6975          149.109       NO       
     PART-1-1.23486        0.0320556          14.9476          161.467       NO       
     PART-1-1.23571        0.0454068          12.6387          160.384       NO       
     PART-1-1.23689       0.00925952           19.979          150.434       NO       
     PART-1-1.23690        0.0150962          24.8246          151.518       NO       
     PART-1-1.23892       0.00348523          33.0399           154.13       NO       
     PART-1-1.24341         0.188519          11.7087          160.833       NO       
     PART-1-1.24506        0.0127452          23.1303          155.961       NO       
     PART-1-1.24615         0.028348           11.155          164.834       NO       
     PART-1-1.24878        0.0147476          13.8154          162.938       NO       
     PART-1-1.24980        0.0136435          19.2935          159.175       NO       
     PART-1-1.25182        0.0325272          13.4488          160.251       NO       
     PART-1-1.25285       0.00842641          22.1912          148.977       NO       
     PART-1-1.25297        0.0395625          9.16091          150.792       NO       
     PART-1-1.25545       0.00686567          21.0266          159.795       NO       
     PART-1-1.25784         0.028573          11.1869           164.09       NO       
     PART-1-1.25822        0.0173493          27.2347          154.596       NO       
     PART-1-1.25917         0.181078          9.82262           150.75       NO       
     PART-1-1.25918         0.167907          9.71646          159.416       NO       
     PART-1-1.25995        0.0140538          12.9691          160.077       NO       
     PART-1-1.26156        0.0233209          14.3771          160.645       NO       
     PART-1-1.26368       0.00999875          18.7041           159.78       NO       
     PART-1-1.26388       0.00439458          20.4011          162.141       NO       
     PART-1-1.26991       0.00981604          22.7083          152.936       NO       
     PART-1-1.27033        0.0550345          12.2553          161.037       NO       
     PART-1-1.27250        0.0107843          41.5757          144.038       NO       
     PART-1-1.27372        0.0151517          21.8619          146.515       NO       
     PART-1-1.27376        0.0115456          22.6352          152.433       NO       
     PART-1-1.27410        0.0106995          17.3712           160.58       NO       
     PART-1-1.27810        0.0156463          20.1209          147.732       NO       
     PART-1-1.28638       0.00414947          14.5115          155.182       NO       
     PART-1-1.28639        0.0164224          18.9463          144.291       NO       
     PART-1-1.28641       0.00586246          17.2972          154.681       NO       
     PART-1-1.28646       0.00368184          18.2121          158.143       NO       
     PART-1-1.28647       0.00628008          19.6578          151.044       NO       
     PART-1-1.28657        0.0167978          25.3189          151.592       NO       
     PART-1-1.28665       0.00800036          26.9193            155.7       NO       
     PART-1-1.28703        0.0115913          18.0618          145.978       NO       
     PART-1-1.28777       0.00342613          14.6225          156.167       NO       
     PART-1-1.28894          0.13741          10.2918           162.65       NO       
     PART-1-1.28976        0.0188678          23.3328          150.206       NO       
     PART-1-1.29415        0.0103133             18.2          160.562       NO       
     PART-1-1.29437        0.0130186          21.7289          149.411       NO       
     PART-1-1.29532        0.0245373          12.2224          162.107       NO       
     PART-1-1.29829        0.0151919          9.72449          165.238       NO       
     PART-1-1.29861        0.0154538          22.4866          142.352       NO       
     PART-1-1.30978       0.00633159          21.0043          155.929       NO       
     PART-1-1.30985       0.00241818          15.5208          158.993       NO       
     PART-1-1.30997        0.0659746          11.5069          160.512       NO       
     PART-1-1.31032        0.0183919          15.0649          159.448       NO       
     PART-1-1.31513         0.040882          13.1948           162.39       NO       
     PART-1-1.31871        0.0137598          24.8572          155.443       NO       
     PART-1-1.31896       0.00408369          25.2988          158.554       NO       
     PART-1-1.32121        0.0136105          20.1221          154.181       NO       
     PART-1-1.32173         0.162038          11.1898          160.901       NO       
     PART-1-1.32301        0.0361002            11.52          162.611       NO       
     PART-1-1.32346        0.0135964          17.6315           146.82       NO       
     PART-1-1.32608         0.017245          19.1859          158.441       NO       
     PART-1-1.32863        0.0169373          13.3356          157.477       NO       
     PART-1-1.33249       0.00936563          19.8039          150.471       NO       
     PART-1-1.33470        0.0109662          15.1665          160.494       NO       
     PART-1-1.33480        0.0116227          20.6547          149.841       NO       
     PART-1-1.33525        0.0156359          20.4033          147.287       NO       
     PART-1-1.33657        0.0097032          30.3415          155.716       NO       
     PART-1-1.34378        0.0149409          16.2404          159.408       NO       
     PART-1-1.34586        0.0855048          12.1918           162.54       NO       
     PART-1-1.34595         0.108293          10.8741          163.641       NO       
     PART-1-1.34754        0.0153178          19.9963          149.208       NO       
     PART-1-1.34810        0.0137524          21.7285          154.764       NO       
     PART-1-1.34870        0.0494227          14.1392          161.282       NO       
     PART-1-1.34903        0.0279323          8.55257          164.106       NO       
     PART-1-1.35048        0.0171799          23.9476          155.327       NO       
     PART-1-1.35745        0.0198114          19.6376          140.092       NO       
     PART-1-1.35795        0.0166338          18.6101          160.053       NO       
     PART-1-1.35839        0.0556972          15.3292          160.181       NO       
     PART-1-1.35851        0.0745591          12.1747          160.275       NO       
     PART-1-1.35953        0.0169041          17.6815          145.014       NO       
     PART-1-1.35958        0.0110142          20.7282          148.153       NO       
     PART-1-1.35969        0.0149442          24.8674          150.448       NO       
     PART-1-1.36010        0.0428266          11.8443          160.356       NO       
     PART-1-1.36177        0.0128793          18.4422          149.851       NO       
     PART-1-1.36246       0.00843696          21.3199          157.897       NO       
     PART-1-1.36598        0.0878425          12.2436          160.708       NO       
     PART-1-1.36977        0.0149363          24.6521          151.702       NO       
     PART-1-1.37233         0.041137          11.5776          162.271       NO       
     PART-1-1.37850        0.0194776          14.9774          149.839       NO       
     PART-1-1.38068        0.0183637          13.3721          162.775       NO       
     PART-1-1.38084        0.0178463          13.2399          162.018       NO       
     PART-1-1.38100        0.0165889          20.5227          157.892       NO       
     PART-1-1.38248        0.0456371          10.7317          164.104       NO       
     PART-1-1.38280        0.0667923          14.8627           160.14       NO       
     PART-1-1.38310        0.0110597           20.068           156.55       NO       
     PART-1-1.38772        0.0251691          13.3949          162.226       NO       
     PART-1-1.38775         0.115962          12.1751          161.359       NO       
     PART-1-1.38929        0.0133766          17.9027          150.052       NO       
     PART-1-1.39064         0.201452           12.501           161.14       NO       
     PART-1-1.39150        0.0111506          15.1487          159.797       NO       
     PART-1-1.39428        0.0151419          13.2271          157.665       NO       
     PART-1-1.39474        0.0121311          24.0574          150.836       NO       
     PART-1-1.39546         0.053054          13.0787          160.406       NO       
     PART-1-1.39717        0.0153678          37.2762          151.917       NO       
     PART-1-1.39741        0.0186083          16.4418          159.608       NO       
     PART-1-1.39850        0.0547032          10.9531          162.076       NO       
     PART-1-1.40390        0.0168996          23.0217          152.296       NO       
     PART-1-1.40478        0.0327266          12.6385          163.776       NO       
     PART-1-1.40564        0.0111337          15.1413          159.811       NO       
     PART-1-1.40596         0.126844          11.2798          162.792       NO       
     PART-1-1.40620        0.0525713          14.1556          160.861       NO       
     PART-1-1.40649        0.0382295          12.3684          161.991       NO       
     PART-1-1.40803        0.0503841          12.1802          161.279       NO       
     PART-1-1.41378       0.00276353          16.7258          164.458       NO       
     PART-1-1.41985        0.0175939          25.4032          142.404       NO       
     PART-1-1.42012         0.125935          10.1659          164.095       NO       
     PART-1-1.42103         0.113795          8.54599          164.895       NO       
     PART-1-1.42363         0.158587          10.4235          162.304       NO       
     PART-1-1.42699        0.0895324          8.89879          146.666       NO       
     PART-1-1.43267        0.0133004          17.0538          147.751       NO       
     PART-1-1.43422        0.0170772          16.5048          154.082       NO       
     PART-1-1.43562        0.0211668          11.1722          163.687       NO       
     PART-1-1.43726         0.013464          19.5271          159.698       NO       
     PART-1-1.43732        0.0438892          14.5174          161.524       NO       
     PART-1-1.43800         0.015408          12.1506          159.407       NO       
     PART-1-1.43900        0.0108607          20.6078          148.262       NO       
     PART-1-1.43945         0.005332          9.99993          162.951       NO       
     PART-1-1.43960         0.018433          23.5767          144.304       NO       
     PART-1-1.43961        0.0114601          20.0828          152.978       NO       
     PART-1-1.43971        0.0173789          16.0242          160.669       NO       
     PART-1-1.43981        0.0163474          16.0866          150.883       NO       
     PART-1-1.43999        0.0192064          23.5866          151.046       NO       
     PART-1-1.44117        0.0192573          22.2702          147.183       NO       
     PART-1-1.44269        0.0113287          22.5419          155.647       NO       
     PART-1-1.44395       0.00481311          15.2565          162.116       NO       
     PART-1-1.44429        0.0147746          20.1454          159.043       NO       
     PART-1-1.44722        0.0109355          15.1677          160.504       NO       
     PART-1-1.44736        0.0183138          25.8909          141.756       NO       
     PART-1-1.44818        0.0145079          21.6631           148.42       NO       
     PART-1-1.45095       0.00256899          11.9599           166.06       NO       
     PART-1-1.45191        0.0101921          14.8544          161.023       NO       
     PART-1-1.45484         0.166474          9.03983          156.998       NO       
     PART-1-1.45596       0.00511072          19.4581          152.844       NO       
     PART-1-1.45597       0.00384477          18.9003          158.158       NO       
     PART-1-1.45964        0.0429555          12.6179          162.132       NO       
     PART-1-1.46269        0.0361672          11.2474          163.666       NO       
     PART-1-1.46395         0.014716          17.1749          146.359       NO       
     PART-1-1.46624        0.0183227          17.5509          160.445       NO       
     PART-1-1.46868         0.017152          24.7724          149.461       NO       
     PART-1-1.47212         0.013767          22.0323          152.324       NO       
     PART-1-1.47217          0.15033          10.4345          162.467       NO       
     PART-1-1.47652        0.0149739          18.5835          158.009       NO       
     PART-1-1.47922       0.00472011          13.8872          163.618       NO       
     PART-1-1.48107        0.0207037          13.4144          160.897       NO       
     PART-1-1.48372         0.012862          18.7561          160.555       NO       
     PART-1-1.49247         0.161456          8.83973          164.304       NO       
     PART-1-1.49249        0.0237866          8.87092          164.092       NO       
     PART-1-1.49268        0.0196245           14.352          161.679       NO       
     PART-1-1.49303        0.0096417          23.1675          154.802       NO       
     PART-1-1.49345        0.0192108          16.4157          145.772       NO       
     PART-1-1.49813        0.0541148          12.5625           160.55       NO       
     PART-1-1.49897       0.00865361          15.0213          160.618       NO       
     PART-1-1.49934        0.0252872          16.9296          160.023       NO       
     PART-1-1.50053        0.0128114          20.6905          148.085       NO       
     PART-1-1.50227        0.0164161           22.397          144.537       NO       
     PART-1-1.50338        0.0123185          16.4819          157.948       NO       
     PART-1-1.50431         0.014313          18.7324           149.08       NO       
     PART-1-1.50508        0.0129949          24.0122          151.468       NO       
     PART-1-1.50542        0.0126043          22.1943          153.304       NO       
     PART-1-1.50625         0.144761          8.32662          160.157       NO       
     PART-1-1.50652        0.0191606          32.3208          152.306       NO       
     PART-1-1.50693         0.121063           9.5525          163.758       NO       
     PART-1-1.50712        0.0125115           20.414           148.62       NO       
     PART-1-1.50715       0.00260068          33.9383           158.24       NO       
     PART-1-1.50723       0.00568044          12.3424          158.561       NO       
     PART-1-1.50958        0.0320066          11.9768          162.107       NO       
     PART-1-1.50992       0.00937071          24.4638            158.1       NO       
     PART-1-1.51212         0.175193          10.6827          163.103       NO       
     PART-1-1.51229        0.0444365          10.6608          162.349       NO       
     PART-1-1.51267        0.0113658           22.389          146.491       NO       
     PART-1-1.51492         0.104808          9.43383          164.647       NO       
     PART-1-1.51575         0.140956          8.79475          159.255       NO       
     PART-1-1.51874        0.0107695          23.0232          146.573       NO       
     PART-1-1.52043         0.017853           27.814          148.083       NO       
     PART-1-1.52050        0.0156709          19.8163          147.822       NO       
     PART-1-1.52207        0.0138908          21.0668          151.844       NO       
     PART-1-1.52447       0.00743874          21.6819          158.057       NO       
     PART-1-1.52969         0.191616          10.5669          162.171       NO       
     PART-1-1.53052       0.00842257          14.1566          164.153       NO       
     PART-1-1.53066       0.00329059          24.3952          157.805       NO       
     PART-1-1.53159         0.106666          9.86066          164.633       NO       
     PART-1-1.53295        0.0545813          12.8138          161.886       NO       
     PART-1-1.53298        0.0136131          16.0431          146.602       NO       
     PART-1-1.53314        0.0124372          23.2833          155.485       NO       
     PART-1-1.53359        0.0169238          11.2315          145.448       NO       
     PART-1-1.53442      3.17391E-20      0.000672888          179.999       NO       
     PART-1-1.53449        0.0186876          19.3331          157.166       NO       
     PART-1-1.53613         0.010752          23.0108          146.666       NO       
     PART-1-1.54082        0.0151386          21.8029          148.926       NO       
     PART-1-1.54455        0.0227267          13.2547          161.933       NO       
     PART-1-1.54788        0.0164901          24.7572          143.384       NO       
     PART-1-1.55034        0.0112591          16.3158          160.962       NO       
     PART-1-1.55286        0.0545929          13.8935          160.525       NO       
     PART-1-1.55714        0.0109524          15.1606          160.504       NO       
     PART-1-1.55799        0.0161059          15.0966          155.319       NO       
     PART-1-1.56094        0.0204685          13.6934          162.081       NO       
     PART-1-1.56342       0.00936433          11.2512          152.206       NO       
     PART-1-1.56394        0.0098322          15.1036          155.958       NO       
     PART-1-1.56403       0.00741071          16.1222          159.105       NO       
     PART-1-1.56550        0.0737885          13.8389          161.282       NO       
     PART-1-1.56716        0.0114979          19.5765            158.7       NO       
     PART-1-1.56757      1.54881E-19      0.000775171          179.998       NO       
     PART-1-1.56795        0.0677738          12.4482          163.174       NO       
     PART-1-1.56805        0.0136061          24.2161          151.143       NO       
     PART-1-1.57130        0.0102631          18.8303          159.339       NO       
     PART-1-1.57538        0.0155151           17.397           146.05       NO       
     PART-1-1.57542        0.0137012          24.2339          151.085       NO       
     PART-1-1.57543        0.0110092          20.6865          148.131       NO       
     PART-1-1.57666       0.00329905          15.8622          162.504       NO       
     PART-1-1.57786        0.0114025          13.5212          162.676       NO       
     PART-1-1.58201        0.0175433          18.7094          145.647       NO       
     PART-1-1.58207        0.0155094          24.6696          149.749       NO       
     PART-1-1.58212        0.0142958          22.7821           145.14       NO       
     PART-1-1.58338        0.0181961            13.33          159.418       NO       
     PART-1-1.58494        0.0766966          12.0825          160.747       NO       
     PART-1-1.58825       0.00952159          21.8571          159.376       NO       
     PART-1-1.58850        0.0478574           11.396           162.35       NO       
     PART-1-1.58948        0.0126798          20.8498          147.044       NO       
     PART-1-1.58952        0.0141931          20.5944          148.924       NO       
     PART-1-1.58962         0.013181          16.6745          148.736       NO       
     PART-1-1.59013         0.015982          17.4359          159.666       NO       
     PART-1-1.59162         0.019507          18.3662          145.552       NO       
     PART-1-1.59220         0.189517          11.6117          160.331       NO       
     PART-1-1.59983      1.72535E-20      0.000577918          179.999       NO       
     PART-1-1.60076        0.0144108          18.4927          145.918       NO       
     PART-1-1.60093        0.0128251          24.3536          150.751       NO       
     PART-1-1.60366        0.0186369           22.257          156.462       NO       
     PART-1-1.60422         0.013607          18.7893          146.482       NO       
     PART-1-1.60423       0.00970138          20.7379          151.694       NO       
     PART-1-1.60791        0.0163968          10.5815          163.643       NO       
     PART-1-1.61762      5.06916E-19      0.000516315          179.999       NO       
     PART-1-1.62052        0.0175166          23.3107          151.689       NO       
     PART-1-1.62058        0.0149554          15.8036          150.993       NO       
     PART-1-1.62088       0.00935805          11.2426          152.191       NO       
     PART-1-1.62089       0.00983089          15.1095          155.969       NO       
     PART-1-1.62103       0.00739001          16.1166          159.105       NO       
     PART-1-1.62254       0.00209196          28.8762          161.315       NO       
     PART-1-1.62492        0.0635342          9.51297          165.669       NO       
     PART-1-1.62716        0.0616454          9.62824          157.075       NO       
     PART-1-1.62727          0.19847           12.548          162.061       NO       
     PART-1-1.62774        0.0287155          11.2985          165.219       NO       
     PART-1-1.63244         0.184657           12.337          162.464       NO       
     PART-1-1.63282         0.214723           12.564          160.786       NO       
     PART-1-1.63551        0.0099158          11.7098          165.364       NO       
     PART-1-1.63576       0.00372015          15.7399          162.066       NO       
     PART-1-1.63790        0.0325594          13.8401          161.428       NO       
     PART-1-1.63801        0.0468652          12.5019          163.085       NO       
     PART-1-1.63805        0.0363773          9.81776          150.921       NO       
     PART-1-1.63935       0.00810771          12.0444          156.785       NO       
     PART-1-1.63961         0.140928          11.2913          161.034       NO       
     PART-1-1.64025       0.00827499          18.3497          159.299       NO       
     PART-1-1.64292       0.00897535          20.7932          159.697       NO       
     PART-1-1.64295        0.0618787          14.4923          160.802       NO       
     PART-1-1.64321       0.00798705          12.3113          155.953       NO       
     PART-1-1.64362        0.0111094          31.1499          150.095       NO       
     PART-1-1.64474        0.0461862          14.2035          161.718       NO       
     PART-1-1.64576       0.00800482          12.3181          155.951       NO       
     PART-1-1.64584        0.0145454          20.3219          149.492       NO       
     PART-1-1.64981        0.0722768          7.10128          167.121       NO       
     PART-1-1.65076        0.0453678          14.4263          160.311       NO       
     PART-1-1.65338        0.0111196           15.346          149.693       NO       
     PART-1-1.65427        0.0120844          12.9146          163.991       NO       
     PART-1-1.65529         0.128524          8.86174          149.512       NO       
     PART-1-1.65603         0.039686          14.4815          161.303       NO       
     PART-1-1.65919        0.0272403          13.2231          161.701       NO       
     PART-1-1.66014        0.0111738           20.087          156.514       NO       
     PART-1-1.66131        0.0222109          16.8007          160.058       NO       
     PART-1-1.66133        0.0806527          12.0876          161.924       NO       
     PART-1-1.66273        0.0157222          22.1594          148.409       NO       
     PART-1-1.66354         0.162972          10.8249          162.751       NO       
     PART-1-1.66488        0.0162466          18.0392          159.909       NO       
     PART-1-1.66505        0.0132386          16.8615          161.107       NO       
     PART-1-1.66594       0.00336254          15.9313          162.422       NO       
     PART-1-1.66770        0.0082452          18.3096          160.953       NO       
     PART-1-1.67007        0.0108359           18.107          160.507       NO       
     PART-1-1.67030         0.065152          10.6791            164.8       NO       
     PART-1-1.67314       0.00967557          19.3691          159.658       NO       
     PART-1-1.67654        0.0744848          11.6069          163.204       NO       
     PART-1-1.67736        0.0223421          11.1413          164.108       NO       
     PART-1-1.67831        0.0115052           19.311          159.943       NO       
     PART-1-1.67916        0.0239951          12.6652          162.257       NO       
     PART-1-1.68123         0.196218          10.9758          160.501       NO       
     PART-1-1.68277        0.0684672          13.1769          161.571       NO       
     PART-1-1.68483       0.00699499          18.9975          161.468       NO       
     PART-1-1.68509       0.00649803          20.4422          160.216       NO       
     PART-1-1.68617        0.0498252          14.4739          160.778       NO       
     PART-1-1.68643        0.0718639           12.295           161.48       NO       
     PART-1-1.69104       0.00850978          16.9668          161.653       NO       
     PART-1-1.69283        0.0405619          16.4232          160.226       NO       
     PART-1-1.69618        0.0327133          13.5143          162.581       NO       
     PART-1-1.69632        0.0435416          11.5156          163.937       NO       
     PART-1-1.69773        0.0112257          18.0798          150.824       NO       
     PART-1-1.69796         0.110872          11.2105          162.465       NO       
     PART-1-1.70278        0.0524604          12.2342          163.479       NO       
     PART-1-1.70666         0.011965           11.947          165.176       NO       
     PART-1-1.70841       0.00503834          17.7443          163.413       NO       
     PART-1-1.70916         0.018339          12.2437          161.978       NO       
     PART-1-1.70993        0.0193318          15.3944           153.64       NO       
     PART-1-1.71372         0.144092          8.28987          161.424       NO       
     PART-1-1.71766         0.107189          10.5181          163.674       NO       
     PART-1-1.71813         0.011108            11.68          164.618       NO       
     PART-1-1.71852        0.0371433          13.8788          162.093       NO       
     PART-1-1.72042        0.0377354          15.0923          160.811       NO       
     PART-1-1.72100        0.0488223          11.1439          162.146       NO       
     PART-1-1.72351        0.0625076          13.1519          162.062       NO       
     PART-1-1.72416         0.010158          21.4693          155.906       NO       
     PART-1-1.72861        0.0433153           11.308          165.089       NO       
     PART-1-1.72896         0.142557          9.39382            163.2       NO       
     PART-1-1.73076         0.124109          10.8552          160.602       NO       
     PART-1-1.73105        0.0301552          10.0461          165.158       NO       
     PART-1-1.73340        0.0151578          20.3474           158.91       NO       
     PART-1-1.73486       0.00567817          25.5988          157.887       NO       
     PART-1-1.73608         0.015533          17.2365          157.664       NO       
     PART-1-1.73763       0.00449911          25.7067          157.654       NO       
     PART-1-1.74243        0.0193522          17.1978          159.539       NO       
     PART-1-1.74428       0.00551294          17.9615          162.552       NO       
     PART-1-1.74523        0.0845275          8.41436          154.125       NO       
     PART-1-1.74572        0.0603544          10.1604          164.459       NO       
     PART-1-1.74724         0.112723          8.29915          157.767       NO       
     PART-1-1.74956        0.0465953          10.7026          164.248       NO       
     PART-1-1.75268        0.0359099           12.198          162.315       NO       
     PART-1-1.75270        0.0143787          13.4542          162.324       NO       
     PART-1-1.75415        0.0159148          22.2412          156.745       NO       
     PART-1-1.75761        0.0152388          21.5923          151.323       NO       
     PART-1-1.76176        0.0121984          9.72165          166.634       NO       
     PART-1-1.76446       0.00420603          22.2661          158.762       NO       
     PART-1-1.76483         0.019792          20.7612          144.374       NO       
     PART-1-1.76646        0.0163318            22.74          151.213       NO       
     PART-1-1.76675       0.00643946          9.93841          167.389       NO       
     PART-1-1.76784        0.0344653          11.8717          162.507       NO       
     PART-1-1.77215        0.0156689          16.9839          158.748       NO       
     PART-1-1.77382        0.0156933          20.2912          147.574       NO       
     PART-1-1.77466        0.0198487          22.4571           145.72       NO       
     PART-1-1.77629         0.102274          11.7591          163.553       NO       
     PART-1-1.77663        0.0493651          12.8817          162.364       NO       
     PART-1-1.78521         0.205771          13.4677          160.905       NO       
     PART-1-1.78555       0.00981843          19.9463          150.143       NO       
     PART-1-1.78941        0.0749595          13.8243          160.671       NO       
     PART-1-1.79258         0.012255          23.8976          151.272       NO       
     PART-1-1.79474        0.0196434          11.1914          163.174       NO       
     PART-1-1.79483        0.0134412          18.4084          151.426       NO       
     PART-1-1.79485        0.0275253          12.2218          163.204       NO       
     PART-1-1.79497        0.0122029          24.1165          151.462       NO       
     PART-1-1.79543        0.0448935          12.6447          162.754       NO       
     PART-1-1.79730        0.0139786          21.3851          149.883       NO       
     PART-1-1.80232        0.0138006          20.5234          147.963       NO       
     PART-1-1.80254        0.0789437          11.5997           160.36       NO       
     PART-1-1.80257        0.0195312          16.4915          159.588       NO       
     PART-1-1.80436        0.0138884          18.4012          149.739       NO       
     PART-1-1.80506        0.0161708          21.8324          147.628       NO       
     PART-1-1.80678        0.0105151          16.2447          150.197       NO       
     PART-1-1.80830        0.0217706          14.2227          162.345       NO       
     PART-1-1.81082        0.0400279          13.6832          161.373       NO       
     PART-1-1.81110        0.0233847          14.4408          161.344       NO       
     PART-1-1.81178         0.138512          10.3713          163.059       NO       
     PART-1-1.81316         0.138076          11.8254          161.397       NO       
     PART-1-1.81329         0.067798          14.8417          160.132       NO       
     PART-1-1.81772         0.206334          12.2344          160.576       NO       
     PART-1-1.82324        0.0152111          24.8231          149.809       NO       
     PART-1-1.82667        0.0170183          20.9828          157.744       NO       
     PART-1-1.82984        0.0153173          25.3028          155.746       NO       
     PART-1-1.83655        0.0117724          12.2545          159.992       NO       
     PART-1-1.83920        0.0109072          15.1507          160.518       NO       
     PART-1-1.84009        0.0176022          13.9974          158.116       NO       
     PART-1-1.84132         0.108086          12.0043          163.146       NO       
     PART-1-1.84203       0.00385096          27.5496          157.293       NO       
     PART-1-1.84571         0.186433          11.8935          161.096       NO       
     PART-1-1.84847        0.0616876          13.1632          161.583       NO       
     PART-1-1.84919        0.0188586          25.2175          151.016       NO       
     PART-1-1.85717        0.0111418           15.145          159.805       NO       
     PART-1-1.85789         0.118761          12.0602          160.784       NO       
     PART-1-1.85907       0.00739542          16.0847          163.356       NO       
     PART-1-1.86172          0.01759          19.4493          145.228       NO       
     PART-1-1.86960        0.0194542           21.759          145.004       NO       
     PART-1-1.87033       0.00871792          21.3167           158.86       NO       
     PART-1-1.87057        0.0450476          13.0206          160.589       NO       
     PART-1-1.87179        0.0149465          24.3594           151.05       NO       
     PART-1-1.87229        0.0197161          17.4903          147.597       NO       
     PART-1-1.87264          0.05338          12.3161           162.17       NO       
     PART-1-1.87413        0.0779913          14.0011          160.137       NO       
     PART-1-1.87503       0.00651184           13.494          156.053       NO       
     PART-1-1.87515         0.105255          13.3953          161.088       NO       
     PART-1-1.87733        0.0143125          18.9697          145.931       NO       
     PART-1-1.87758        0.0115369           20.964          158.212       NO       
     PART-1-1.87813        0.0175826          18.2148          158.214       NO       
     PART-1-1.87838        0.0133991          11.3746          164.679       NO       
     PART-1-1.88178        0.0142465          23.7342           144.51       NO       
     PART-1-1.88235         0.011989          23.2259          153.091       NO       
     PART-1-1.88744       0.00823123          22.6451          157.386       NO       
     PART-1-1.88864         0.031553          12.2383          160.262       NO       
     PART-1-1.88970         0.046316          13.8599          161.936       NO       
     PART-1-1.89090        0.0192671          18.2504          159.802       NO       
     PART-1-1.89322         0.190371          10.4182          162.142       NO       
     PART-1-1.89735       0.00522419           14.502          163.366       NO       
     PART-1-1.90116         0.215591          12.2436          160.629       NO       
     PART-1-1.90139        0.0558212          10.3406          162.923       NO       
     PART-1-1.90153        0.0102665          10.6369          164.153       NO       
     PART-1-1.90209        0.0112812          15.9655           161.64       NO       
     PART-1-1.90354         0.007625            13.29          163.247       NO       
     PART-1-1.90434       0.00746329          12.8476           154.93       NO       
     PART-1-1.90502         0.010955          15.1621          160.503       NO       
     PART-1-1.90793        0.0306366          11.7765          161.858       NO       
     PART-1-1.90804        0.0137818          17.8276           151.79       NO       
     PART-1-1.90838        0.0192816          14.7936          154.391       NO       
     PART-1-1.90841        0.0124571          19.2417          148.869       NO       
     PART-1-1.90930        0.0190263          19.5289          147.087       NO       
     PART-1-1.91207        0.0172513          21.8356          144.455       NO       
     PART-1-1.91472       0.00395782          13.3719          164.525       NO       
     PART-1-1.91691       0.00938776          28.6849          156.275       NO       
     PART-1-1.91772        0.0199647          20.7192          148.075       NO       
     PART-1-1.91812        0.0130743          21.4328          149.361       NO       
     PART-1-1.92476        0.0106883          20.0071          156.426       NO       
     PART-1-1.92493        0.0971831           12.323          162.108       NO       
     PART-1-1.93086        0.0242126          11.4517          164.973       NO       
     PART-1-1.93103         0.157975          11.1719          160.533       NO       
     PART-1-1.93255          0.04278          9.82727          162.527       NO       
     PART-1-1.93288        0.0281721          7.27437          155.743       NO       
     PART-1-1.93531        0.0257867          11.7544          164.646       NO       
     PART-1-1.93765        0.0159873          13.7994          161.643       NO       
     PART-1-1.93884        0.0129012          9.94358          165.937       NO       
     PART-1-1.93954        0.0199682          21.1956          145.537       NO       
     PART-1-1.93992        0.0779281          14.2556          160.277       NO       
     PART-1-1.94357        0.0158747          22.4462          127.042       NO       
     PART-1-1.94440        0.0130069          22.6094          145.881       NO       
     PART-1-1.94482       0.00715009          12.5331          162.316       NO       
     PART-1-1.94597        0.0178227          18.5296          157.126       NO       
     PART-1-1.94603       0.00781921          12.6933          155.578       NO       
     PART-1-1.94645        0.0331751          13.8579          162.168       NO       
     PART-1-1.94670        0.0178054          18.5241          157.138       NO       
     PART-1-1.94713        0.0301921          13.0441          161.159       NO       
     PART-1-1.94989         0.117343          8.25494          163.046       NO       
     PART-1-1.95371         0.017453          16.7932          149.044       NO       
     PART-1-1.95449       0.00881868          11.5332          166.237       NO       
     PART-1-1.95839        0.0130246          23.8106          151.612       NO       
     PART-1-1.96333        0.0652315          11.8865          162.124       NO       
     PART-1-1.96352        0.0573592          10.3921           162.25       NO       
     PART-1-1.96377        0.0130654           17.371          150.328       NO       
     PART-1-1.96410        0.0178108           23.427            151.5       NO       
     PART-1-1.96428         0.015214          15.9641           150.87       NO       
     PART-1-1.96444         0.016433          20.0868          147.002       NO       
     PART-1-1.96450       0.00130237          25.2741          162.986       NO       
     PART-1-1.96452        0.0186104          20.8473          146.076       NO       
     PART-1-1.96501         0.169894           9.7833          157.998       NO       
     PART-1-1.96970        0.0745809          12.1346          161.338       NO       
     PART-1-1.97274       0.00834011          18.1511          152.037       NO       
     PART-1-1.97291        0.0317667           9.4902          121.449       NO       
     PART-1-1.97313        0.0135554          21.9651          152.432       NO       
     PART-1-1.97400        0.0112432          10.8435          162.387       NO       
     PART-1-1.97555         0.014703          15.3134          152.641       NO       
     PART-1-1.97736        0.0149385            17.19          146.362       NO       
     PART-1-1.97787        0.0131766          24.0197            151.4       NO       
     PART-1-1.97804        0.0413477          13.7392          161.349       NO       
     PART-1-1.97899        0.0124551          21.5002          150.504       NO       
     PART-1-1.98043        0.0710746          11.2131          164.162       NO       
     PART-1-1.98112        0.0159675          17.1565          148.455       NO       
     PART-1-1.98120        0.0139032          23.0168          151.309       NO       
     PART-1-1.98169        0.0131347          17.8315          149.008       NO       
     PART-1-1.98442        0.0190774          24.4246          149.599       NO       
     PART-1-1.98498         0.131138          10.6766          161.281       NO       
     PART-1-1.98721         0.016692          24.0884          154.952       NO       
     PART-1-1.98736       0.00935486          19.6456          159.322       NO       
     PART-1-1.99216        0.0115385          21.1039          138.013       NO       
     PART-1-1.99220        0.0169556          26.3302          139.117       NO       
     PART-1-1.99343        0.0124012          14.2872          162.933       NO       
     PART-1-1.99431        0.0109082          20.2432          148.447       NO       
    PART-1-1.100180        0.0189174          22.0552          150.295       NO       
    PART-1-1.100213        0.0191086          16.0432          149.139       NO       
    PART-1-1.100243       0.00762164          19.4347           156.71       NO       
    PART-1-1.100345        0.0193095          21.4103          145.232       NO       
    PART-1-1.100442        0.0122883          20.1968          159.308       NO       
    PART-1-1.100779         0.117183          10.7724          160.926       NO       
    PART-1-1.100830        0.0134164          24.4211          154.027       NO       
    PART-1-1.101005        0.0106744          21.1956           151.02       NO       
    PART-1-1.101213        0.0306627          12.2367          160.123       NO       
    PART-1-1.101585        0.0129649          22.0547          147.084       NO       
    PART-1-1.102044        0.0117416          12.7431          163.232       NO       
    PART-1-1.102132        0.0137379          17.6606          146.164       NO       
    PART-1-1.102668         0.143161          9.16073          163.605       NO       
    PART-1-1.102840        0.0171628          18.7264          145.311       NO       
    PART-1-1.102958        0.0338088          12.4754          161.667       NO       
    PART-1-1.103034        0.0113709          13.9182           154.61       NO       
    PART-1-1.103142       0.00974243          16.5096          161.545       NO       
    PART-1-1.103462       0.00786313          10.7774          161.949       NO       
    PART-1-1.103484        0.0109227          15.1622          160.512       NO       
    PART-1-1.103874        0.0314439           12.999          161.089       NO       
    PART-1-1.104020       0.00993287          20.3811          148.889       NO       
    PART-1-1.104217       0.00917838          20.9407           148.99       NO       
    PART-1-1.104353        0.0062437          15.4565          163.756       NO       
    PART-1-1.104493        0.0158409          21.6978           144.79       NO       
    PART-1-1.104689        0.0106712          20.4549          148.448       NO       
    PART-1-1.104804        0.0160525          23.7418          144.044       NO       
    PART-1-1.104858       0.00763884          27.2419          155.808       NO       
    PART-1-1.104869        0.0104369          18.4079           158.42       NO       
    PART-1-1.104875       0.00783177           12.699          155.558       NO       
    PART-1-1.105654       0.00443929          14.4724          164.193       NO       
    PART-1-1.105845        0.0076823          22.3797          160.018       NO       
    PART-1-1.106212        0.0993743          9.41999          159.807       NO       
    PART-1-1.106666        0.0886523          12.1609          162.335       NO       
    PART-1-1.106977        0.0127669          24.3945          150.481       NO       
    PART-1-1.107024        0.0784769          13.9284          160.359       NO       
    PART-1-1.107122       0.00527022          24.3302          157.718       NO       
    PART-1-1.107460        0.0325196          10.0389          164.611       NO       
    PART-1-1.108049        0.0730309          11.2506          160.615       NO       
    PART-1-1.108056         0.177226          11.2587           161.48       NO       
    PART-1-1.108060       0.00892017          11.8786          154.962       NO       
    PART-1-1.108311        0.0108993          15.1465          160.522       NO       
    PART-1-1.108462        0.0158345          15.5503          150.178       NO       
    PART-1-1.108596       0.00656449            12.09          157.536       NO       
    PART-1-1.108698        0.0147911          16.9413          146.702       NO       
    PART-1-1.108813        0.0334794          13.8224          160.688       NO       
    PART-1-1.109189        0.0676015           12.751          160.052       NO       
    PART-1-1.109264         0.018293          16.0551          150.214       NO       
    PART-1-1.109302           0.0166          12.2556          159.431       NO       
    PART-1-1.109331        0.0128424          17.2836          159.715       NO       
    PART-1-1.109343         0.104714           12.014          160.912       NO       
    PART-1-1.109963         0.143045          7.59101          162.738       NO       
    PART-1-1.110035       0.00565882          13.4055          162.501       NO       
    PART-1-1.110129        0.0433885          8.98671          153.262       NO       
    PART-1-1.110356        0.0106368          20.3292          148.531       NO       
    PART-1-1.110396        0.0128214          23.8097          151.637       NO       
    PART-1-1.110479        0.0145375          17.0209            146.7       NO       
    PART-1-1.110668        0.0076876          15.5267          146.573       NO       
    PART-1-1.110672      5.92361E-22      0.000192777          179.999       NO       
    PART-1-1.110685      1.49366E-21      0.000120373             180.       NO       
    PART-1-1.110686      6.58826E-23      0.000143723             180.       NO       
    PART-1-1.110700       0.00086834          6.99028          168.112       NO       
    PART-1-1.111295        0.0172094          17.4586          155.295       NO       
    PART-1-1.111679        0.0156194          24.9674          149.249       NO       
    PART-1-1.111863        0.0362859          12.6265          162.426       NO       
    PART-1-1.112340        0.0107763          23.0912          146.649       NO       
    PART-1-1.112369        0.0266338          13.2163          162.172       NO       
    PART-1-1.113306        0.0388963          13.5324          162.521       NO       
    PART-1-1.113416       0.00435701          16.3421          162.213       NO       
    PART-1-1.113963        0.0127955          24.1116          157.211       NO       
    PART-1-1.114100       0.00538372          7.65384          169.222       NO       
    PART-1-1.114743         0.013512          11.4582          166.011       NO       
    PART-1-1.114857        0.0138085          18.0159          146.642       NO       
    PART-1-1.115113        0.0088279          31.2835          155.977       NO       
    PART-1-1.115730        0.0608423          14.4507          160.594       NO       
    PART-1-1.115731        0.0322565          13.2343           160.72       NO       
    PART-1-1.115756         0.009231          20.7246          150.043       NO       
    PART-1-1.116441        0.0163218          16.6299          159.189       NO       
    PART-1-1.116661        0.0141703          17.4192          146.878       NO       
    PART-1-1.117029        0.0165417          14.6268          161.735       NO       
    PART-1-1.117083         0.014929          19.4805          148.675       NO       
    PART-1-1.117112       0.00463395           20.656          156.703       NO       
    PART-1-1.117217        0.0119481          23.4866          146.112       NO       
    PART-1-1.117487       0.00540653          14.2666          164.166       NO       
    PART-1-1.117533        0.0183439          12.2138          161.211       NO       
    PART-1-1.117574        0.0198415           27.257          147.391       NO       
    PART-1-1.117882        0.0100539          17.5338           158.28       NO       
    PART-1-1.118011        0.0129197          13.0515          158.901       NO       
    PART-1-1.118990        0.0146832          16.1397          161.243       NO       
    PART-1-1.119538       0.00661429          13.1749          158.738       NO       
    PART-1-1.119562       0.00937167          19.8202          150.314       NO       
    PART-1-1.119581        0.0175195          21.9317          147.138       NO       
    PART-1-1.119744        0.0693456          14.6853          160.162       NO       
    PART-1-1.119802        0.0184176           22.959          144.739       NO       
    PART-1-1.120057         0.044041          13.0725          160.361       NO       
    PART-1-1.120149         0.102726          10.2743          163.566       NO       
    PART-1-1.120405        0.0163598          22.3416          147.213       NO       
    PART-1-1.120639        0.0108863          21.0274          147.921       NO       
    PART-1-1.121180      1.57577E-19       0.00077834          179.998       NO       
    PART-1-1.121219      1.39666E-20      0.000548141          179.999       NO       
    PART-1-1.121253         0.164416          11.2841          160.526       NO       
    PART-1-1.122028         0.012739          23.4012          153.386       NO       
    PART-1-1.122081       0.00256266          31.2852          156.034       NO       
    PART-1-1.122098       0.00442203          10.9273           159.44       NO       
    PART-1-1.122104         0.100149          11.5013          163.135       NO       
    PART-1-1.122345        0.0150489          16.6021          159.947       NO       
    PART-1-1.122372        0.0174569          22.5704          151.993       NO       
    PART-1-1.122756        0.0109928          22.5353          146.465       NO       
    PART-1-1.123018       0.00443484            22.48          159.441       NO       
    PART-1-1.123552        0.0799724           9.5439           161.16       NO       
    PART-1-1.123633       0.00315231          8.40043          166.316       NO       
    PART-1-1.123755         0.022623          9.75242          165.932       NO       
    PART-1-1.124043        0.0105235          21.8279          147.592       NO       
    PART-1-1.124239        0.0180732          9.53794          165.058       NO       
    PART-1-1.124295          0.01526          21.1723           155.84       NO       
    PART-1-1.124395       0.00904667          20.7346          153.896       NO       
    PART-1-1.124397        0.0104192          16.1031          152.086       NO       
    PART-1-1.124400        0.0170674          24.7502          151.566       NO       
    PART-1-1.124406        0.0062461          16.9349           155.25       NO       
    PART-1-1.124441       0.00704454          21.1521          157.622       NO       
    PART-1-1.124601        0.0125168          23.7312           151.54       NO       
    PART-1-1.124628         0.018701          15.4722          154.492       NO       
    PART-1-1.124666         0.049717          13.6423          161.716       NO       
    PART-1-1.124981        0.0583968          14.3358          161.096       NO       
    PART-1-1.125108        0.0190921          17.4379          144.753       NO       
    PART-1-1.125180        0.0183497          20.5992          155.759       NO       
  
  
 --------------------------------------------------------------------------------
 Elements with small volume
  
      Element       Adjusted nodes 
 ------------------ -------------- 
     PART-1-1.20291       NO       
     PART-1-1.23103       NO       
     PART-1-1.35305       NO       
     PART-1-1.53444       NO       
     PART-1-1.54412       NO       
     PART-1-1.61486       NO       
     PART-1-1.61531       NO       
     PART-1-1.61863       NO       
     PART-1-1.61866       NO       
     PART-1-1.86013       NO       
     PART-1-1.86015       NO       
    PART-1-1.110697       NO       
    PART-1-1.110704       NO       
  
  *Step, name=Step-1, nlgeom=NO, perturbation
  *output, field, variable=PRESELECT
  *Step, name=Step-1, nlgeom=NO, perturbation

 ***ERROR: NODE SET ASSEMBLY_BOTTOM_SET_PIN HAS NOT BEEN DEFINED

 ***ERROR: NODE SET ASSEMBLY_BOTTOM_SET_PIN HAS NOT BEEN DEFINED

 ***ERROR: NODE SET ASSEMBLY_TOP_SET_PIN HAS NOT BEEN DEFINED

 ***ERROR: NODE SET ASSEMBLY_TOP_SET_PIN HAS NOT BEEN DEFINED

 ***ERROR: NODE SET ASSEMBLY_TOP_SET_PIN HAS NOT BEEN DEFINED

 ***ERROR: NODE SET ASSEMBLY_TOP_SET_PIN HAS NOT BEEN DEFINED
  *Step, name=Step-1, nlgeom=NO, perturbation
  *buckle
  *boundary, op=NEW, loadcase=1
  *boundary, op=NEW, loadcase=2
  *boundary, op=NEW, loadcase=1
  *boundary, op=NEW, loadcase=2
  *dsload

 ***ERROR: THE SURFACE ASSEMBLY_TOP_SURFACE HAS NOT BEEN LOCATED
 LINE IMAGE: ASSEMBLY_TOP_SURFACE, P, 1.
  *output, field, variable=PRESELECT
  *endstep
  *Step, name=Step-1, nlgeom=NO, perturbation
  *buckle
  *buckle
  *boundary, op=NEW, loadcase=1

 ***ERROR: A BOUNDARY CONDITION HAS BEEN SPECIFIED ON NODE SET 
           ASSEMBLY_BOTTOM_SET_PIN BUT THIS NODE SET IS NOT ACTIVE IN THE MODEL
  *boundary, op=NEW, loadcase=2

 ***ERROR: A BOUNDARY CONDITION HAS BEEN SPECIFIED ON NODE SET 
           ASSEMBLY_BOTTOM_SET_PIN BUT THIS NODE SET IS NOT ACTIVE IN THE MODEL
  *boundary, op=NEW, loadcase=1

 ***ERROR: A BOUNDARY CONDITION HAS BEEN SPECIFIED ON NODE SET 
           ASSEMBLY_TOP_SET_PIN BUT THIS NODE SET IS NOT ACTIVE IN THE MODEL

 ***ERROR: A BOUNDARY CONDITION HAS BEEN SPECIFIED ON NODE SET 
           ASSEMBLY_TOP_SET_PIN BUT THIS NODE SET IS NOT ACTIVE IN THE MODEL
  *boundary, op=NEW, loadcase=2

 ***ERROR: A BOUNDARY CONDITION HAS BEEN SPECIFIED ON NODE SET 
           ASSEMBLY_TOP_SET_PIN BUT THIS NODE SET IS NOT ACTIVE IN THE MODEL

 ***ERROR: A BOUNDARY CONDITION HAS BEEN SPECIFIED ON NODE SET 
           ASSEMBLY_TOP_SET_PIN BUT THIS NODE SET IS NOT ACTIVE IN THE MODEL
  *endstep

 ***ERROR: NODE SET ASSEMBLY_BOTTOM_SET_PIN HAS NOT BEEN DEFINED

 ***ERROR: NODE SET ASSEMBLY_BOTTOM_SET_PIN HAS NOT BEEN DEFINED

 ***ERROR: NODE SET ASSEMBLY_TOP_SET_PIN HAS NOT BEEN DEFINED

 ***ERROR: NODE SET ASSEMBLY_TOP_SET_PIN HAS NOT BEEN DEFINED

 ***ERROR: NODE SET ASSEMBLY_TOP_SET_PIN HAS NOT BEEN DEFINED

 ***ERROR: NODE SET ASSEMBLY_TOP_SET_PIN HAS NOT BEEN DEFINED



                            P R O B L E M   S I Z E


          NUMBER OF ELEMENTS IS                                125184
          NUMBER OF ELEMENTS DEFINED BY THE USER AND *TIE      125182
          NUMBER OF NODES IS                                    47213
          NUMBER OF NODES DEFINED BY THE USER                   47213
          TOTAL NUMBER OF VARIABLES IN THE MODEL               141645
          (DEGREES OF FREEDOM PLUS MAX NO. OF ANY LAGRANGE MULTIPLIER
           VARIABLES. INCLUDE *PRINT,SOLVE=YES TO GET THE ACTUAL NUMBER.)





          THE PROGRAM HAS DISCOVERED    41 FATAL ERRORS

               ** EXECUTION IS TERMINATED **

 ***ERROR: Failed to locate set "ASSEMBLY_TOP_SET_PIN".



                              END OF USER INPUT PROCESSING



     JOB TIME SUMMARY
       USER TIME (SEC)      =   4.6000    
       SYSTEM TIME (SEC)    =   1.4000    
       TOTAL CPU TIME (SEC) =   6.0000    
       WALLCLOCK TIME (SEC) =          6
