1

   Abaqus 3DEXPERIENCE R2019x                                  Date 01-May-2020   Time 18:56:56
   For use by TEXAS A_M UNIVERSITY SYSTEM under license from Dassault Systemes or its subsidiary.



                         The Abaqus Software is a product of:

                           Dassault Systemes SIMULIA Corp.
                           1301 Atwood Avenue, Suite 101W
                              Johnston, RI 02919, USA
 


                   The Abaqus Software is available only under license
                   from Dassault Systemes or its subsidiary and may be
                   used or reproduced only in accordance with the terms
                   of such license.
 
                          On machine AERO-MJ09CBE4 
                          you are authorized to run
                          Abaqus/Standard until 11-Jul-2021

                          Your site id is: 200000000002185 


 
                    For assistance or any other information you may
                    obtain contact information for your local office
                    from the world wide web at:

                      http://www.3ds.com/products/simulia/locations/

 
                * * * * * * * * * * * * * * * * * * * * * * * * * * * * * * 
                *                                                         * 
                *                   *****************                     * 
                *                   *  N O T I C E  *                     * 
                *                   *****************                     * 
                *                                                         * 
                *                                                         * 
                *               Abaqus 3DEXPERIENCE R2019x                * 
                *                                                         * 
                *          BUILD ID: 2018_09_24-13.41.51 157541           * 
                *                                                         * 
                *                                                         * 
                *  Please make sure you are using                         * 
                *  release 3DEXPERIENCE R2019x manuals                    * 
                *  plus the notes accompanying this release.              * 
                *                                                         * 
                *                                                         * 
                *                                                         * 
                *                                                         * 
                *                                                         * 
                *   This program may not be used for commercial purposes  * 
                *           without payment of a commercial fee.          * 
                *                                                         * 
                * * * * * * * * * * * * * * * * * * * * * * * * * * * * * * 


 



     PROCESSING PART, INSTANCE, AND ASSEMBLY INFORMATION
   *******************************************************


 ***ERROR: in keyword *RIGIDBODY, file "Buckling_job_7_1.inp", line 128419: 
           Unknown assembly set TOP_SET_PIN
 ***NOTE: DUE TO AN INPUT ERROR THE ANALYSIS PRE-PROCESSOR HAS BEEN UNABLE TO 
          INTERPRET SOME DATA.  SUBSEQUENT ERRORS MAY BE CAUSED BY THIS OMISSION

 ***ERROR: in keyword *RIGIDBODY, file "Buckling_job_7_1.inp", line 128421: 
           Unknown assembly set BOTTOM_SET_PIN

 ***ERROR: in keyword *BOUNDARY, file "Buckling_job_7_1.inp", line 128443: 
           Unknown assembly node set BOTTOM_SET_PIN

 ***ERROR: in keyword *BOUNDARY, file "Buckling_job_7_1.inp", line 128445: 
           Unknown assembly node set BOTTOM_SET_PIN

 ***ERROR: in keyword *BOUNDARY, file "Buckling_job_7_1.inp", line 128448: 
           Unknown assembly node set TOP_SET_PIN

 ***ERROR: in keyword *BOUNDARY, file "Buckling_job_7_1.inp", line 128448: 
           Unknown assembly node set TOP_SET_PIN

 ***ERROR: in keyword *BOUNDARY, file "Buckling_job_7_1.inp", line 128451: 
           Unknown assembly node set TOP_SET_PIN

 ***ERROR: in keyword *BOUNDARY, file "Buckling_job_7_1.inp", line 128451: 
           Unknown assembly node set TOP_SET_PIN

     END PROCESSING PART, INSTANCE, AND ASSEMBLY INFORMATION
   ***********************************************************




     OPTIONS BEING PROCESSED
   ***************************


  *Heading
  *Node
  *Element, type=C3D4
  *Nset, nset=ASSEMBLY_PART-1-1_FIBRE_SET1
  *Nset, nset=ASSEMBLY_PART-1-1_FIBRE_SET2
  *Nset, nset=ASSEMBLY_PART-1-1_FIBRE_SET3
  *Nset, nset=ASSEMBLY_PART-1-1_FIBRE_SET4
  *Elset, elset=ASSEMBLY_PART-1-1_FIBRE_SET1
  *Elset, elset=ASSEMBLY_PART-1-1_FIBRE_SET2
  *Elset, elset=ASSEMBLY_PART-1-1_FIBRE_SET3
  *Elset, elset=ASSEMBLY_PART-1-1_FIBRE_SET4
  *Node
  *Nset, nset=ASSEMBLY__PICKEDSET19
  *Nset, nset=ASSEMBLY__PICKEDSET21

 ***WARNING: BUCKLE OPTION IS NOT SUPPORTED FOR ELEMENT LOOP PARALLELIZATION. 
             IF YOU HAVE SPECIFIED ELEMENT LOOP PARALLELIZATION, IT WILL BE 
             TURNED OFF FOR THIS ANALYSIS.
 LINE IMAGE: *buckle
  *material, name=FIBRE_MATERIAL
  *elastic
  *material, name=MATRIX_MATERIAL
  *elastic
  *solidsection, elset=ASSEMBLY_PART-1-1_FIBRE_SET1, material=FIBRE_MATERIAL
  *solidsection, elset=ASSEMBLY_PART-1-1_FIBRE_SET2, material=FIBRE_MATERIAL
  *solidsection, elset=ASSEMBLY_PART-1-1_FIBRE_SET3, material=FIBRE_MATERIAL
  *solidsection, elset=ASSEMBLY_PART-1-1_FIBRE_SET4, material=FIBRE_MATERIAL
  *solidsection, elset=ASSEMBLY_PART-1-1_FIBRE_SET1, material=FIBRE_MATERIAL
  *solidsection, elset=ASSEMBLY_PART-1-1_FIBRE_SET2, material=FIBRE_MATERIAL
  *solidsection, elset=ASSEMBLY_PART-1-1_FIBRE_SET3, material=FIBRE_MATERIAL
  *solidsection, elset=ASSEMBLY_PART-1-1_FIBRE_SET4, material=FIBRE_MATERIAL
  *rigidbody, refnode=ASSEMBLY__PICKEDSET19, pinnset=ASSEMBLY_TOP_SET_PIN
  *rigidbody, refnode=ASSEMBLY__PICKEDSET21, pinnset=ASSEMBLY_BOTTOM_SET_PIN
  *rigidbody, refnode=ASSEMBLY__PICKEDSET19, pinnset=ASSEMBLY_TOP_SET_PIN
  *rigidbody, refnode=ASSEMBLY__PICKEDSET21, pinnset=ASSEMBLY_BOTTOM_SET_PIN
  *rigidbody, refnode=ASSEMBLY__PICKEDSET19, pinnset=ASSEMBLY_TOP_SET_PIN
  *rigidbody, refnode=ASSEMBLY__PICKEDSET21, pinnset=ASSEMBLY_BOTTOM_SET_PIN
  *rigidbody, refnode=ASSEMBLY__PICKEDSET19, pinnset=ASSEMBLY_TOP_SET_PIN

 ***ERROR: NODE SET ASSEMBLY_TOP_SET_PIN HAS NOT BEEN DEFINED
  *rigidbody, refnode=ASSEMBLY__PICKEDSET21, pinnset=ASSEMBLY_BOTTOM_SET_PIN

 ***ERROR: NODE SET ASSEMBLY_BOTTOM_SET_PIN HAS NOT BEEN DEFINED
  *rigidbody, refnode=ASSEMBLY__PICKEDSET19, pinnset=ASSEMBLY_TOP_SET_PIN

 ***ERROR: NODE SET ASSEMBLY_TOP_SET_PIN HAS NOT BEEN DEFINED

 ***ERROR: UNABLE TO LOCATE NODE SET ASSEMBLY_TOP_SET_PIN. THE NODE SET MUST 
           HAVE BEEN PREVIOUSLY DEFINED. NODES IN THIS NODE SET WILL NOT BE 
           PART OF RIGID BODY
 LINE IMAGE: *rigidbody, refnode=ASSEMBLY__PICKEDSET19, 
             pinnset=ASSEMBLY_TOP_SET_PIN
  *rigidbody, refnode=ASSEMBLY__PICKEDSET21, pinnset=ASSEMBLY_BOTTOM_SET_PIN

 ***ERROR: NODE SET ASSEMBLY_BOTTOM_SET_PIN HAS NOT BEEN DEFINED

 ***ERROR: UNABLE TO LOCATE NODE SET ASSEMBLY_BOTTOM_SET_PIN. THE NODE SET MUST 
           HAVE BEEN PREVIOUSLY DEFINED. NODES IN THIS NODE SET WILL NOT BE 
           PART OF RIGID BODY
 LINE IMAGE: *rigidbody, refnode=ASSEMBLY__PICKEDSET21, 
             pinnset=ASSEMBLY_BOTTOM_SET_PIN

 ***ERROR: SURFACE DEFINITION ASSEMBLY_TOP_SURFACE NOT FOUND.
  *rigidbody, refnode=ASSEMBLY__PICKEDSET19, pinnset=ASSEMBLY_TOP_SET_PIN
  *rigidbody, refnode=ASSEMBLY__PICKEDSET21, pinnset=ASSEMBLY_BOTTOM_SET_PIN
  *rigidbody, refnode=ASSEMBLY__PICKEDSET19, pinnset=ASSEMBLY_TOP_SET_PIN

 ***ERROR: NODE SET ASSEMBLY_TOP_SET_PIN HAS NOT BEEN DEFINED

 ***ERROR: UNABLE TO LOCATE NODE SET ASSEMBLY_TOP_SET_PIN. THE NODE SET MUST 
           HAVE BEEN PREVIOUSLY DEFINED. NODES IN THIS NODE SET WILL NOT BE 
           PART OF RIGID BODY
 LINE IMAGE: *rigidbody, refnode=ASSEMBLY__PICKEDSET19, 
             pinnset=ASSEMBLY_TOP_SET_PIN
  *rigidbody, refnode=ASSEMBLY__PICKEDSET21, pinnset=ASSEMBLY_BOTTOM_SET_PIN

 ***ERROR: NODE SET ASSEMBLY_BOTTOM_SET_PIN HAS NOT BEEN DEFINED

 ***ERROR: UNABLE TO LOCATE NODE SET ASSEMBLY_BOTTOM_SET_PIN. THE NODE SET MUST 
           HAVE BEEN PREVIOUSLY DEFINED. NODES IN THIS NODE SET WILL NOT BE 
           PART OF RIGID BODY
 LINE IMAGE: *rigidbody, refnode=ASSEMBLY__PICKEDSET21, 
             pinnset=ASSEMBLY_BOTTOM_SET_PIN
  *boundary, op=NEW, loadcase=1
  *boundary, op=NEW, loadcase=2
  *boundary, op=NEW, loadcase=1
  *boundary, op=NEW, loadcase=2
  *boundary, op=NEW, loadcase=1
  *boundary, op=NEW, loadcase=2
  *boundary, op=NEW, loadcase=1
  *boundary, op=NEW, loadcase=2
  *rigidbody, refnode=ASSEMBLY__PICKEDSET19, pinnset=ASSEMBLY_TOP_SET_PIN
  *rigidbody, refnode=ASSEMBLY__PICKEDSET21, pinnset=ASSEMBLY_BOTTOM_SET_PIN
  *output, field, variable=PRESELECT
  *output, field, variable=PRESELECT
  *output, field, variable=PRESELECT

 ***ERROR: NODE SET ASSEMBLY_TOP_SET_PIN HAS NOT BEEN DEFINED

 ***ERROR: NODE SET ASSEMBLY_BOTTOM_SET_PIN HAS NOT BEEN DEFINED
  
                               E L E M E N T   Q U A L I T Y  C H E C K S        
  
  
 ***NOTES: DISTORTED ISOPARAMETRIC ELEMENTS: ANGLE BETWEEN ISOPARAMETRIC LINES 
           IS LESS THAN 45 DEGREES OR GREATER THAN 135 DEGREES.
  
           TETRAHEDRAL QUALITY MEASURE: VOLUME OF TETRAHEDRON DIVIDED BY THE 
           VOLUME OF EQUILATERAL TETRAHEDRON WITH SAME CIRCUMSPHERE RADIUS; 
           0 FOR DEGENERATE TETRAHEDRON AND 1 FOR EQUILATERIAL TETRAHEDRON. IT 
           IS RECOMMENDED THAT THE TETRAHEDRAL QUALITY MEASURE BE GREATER THAN 
           0.02, THE MIN INTERIOR (DIHEDRAL) ANGLE BE GREATER THAN 10 DEGREES, 
           AND THE MAX INTERIOR (DIHEDRAL) ANGLE BE LESS THAN 160 DEGREES. 
  
           MODIFIED TETRAHEDRAL QUALITY MEASURE: ANGLES BETWEEN THE TWO LINE 
           SEGMENTS ON EACH EDGE; THE EDGES OF MODIFIED TETRAHEDRAL SHOULD BE 
           AS STRAIGHT AS POSSIBLE. IT IS RECOMMENDED THAT THE ANGLE BETWEEN 
           THE TWO LINE SEGMENTS ON EACH EDGE IS BETWEEN 160 AND 180 DEGREES. 
  
           TRIANGULAR QUALITY MEASURE: AREA OF TRIANGLE DIVIDED BY THE AREA OF 
           EQUILATERAL TRIANGLE WITH SAME CIRCUMCIRCLE RADIUS; 0 FOR DEGENERATE 
           TRIANGLE AND 1 FOR EQUILATERAL TRIANGLE. IT IS RECOMMENDED THAT THE
           TRIANGULAR QUALITY MEASURE BE GREATER THAN 0.01, THE MIN INTERIOR 
           ANGLE BE GREATER THAN 10 DEGREES, AND THE MAX INTERIOR ANGLE BE LESS 
           THAN 160 DEGREES. 
  
           NODAL ADJUSTMENTS ARISING FROM CONTACT INTERACTIONS AND/OR TIE 
           CONSTRAINTS CAN CAUSE SEVERE ELEMENT DISTORTION. IT MAY BE NECESSARY 
           TO REMESH IN ORDER TO REDUCE THE AMOUNT OF ADJUSTMENT. 

 ***WARNING: 3988 elements are distorted. Either the isoparametric angles are 
             out of the suggested limits or the triangular or tetrahedral 
             quality measure is bad. The elements have been identified in 
             element set WarnElemDistorted.

 ***ERROR: The volume of 35 elements is zero, small, or negative. Check 
           coordinates or node numbering, or modify the mesh seed. In the case 
           of a tetrahedron this error may indicate that all nodes are located 
           very nearly in a plane. The elements have been identified in element 
           set ErrElemVolSmallNegZero.
  
 --------------------------------------------------------------------------------
 Distorted tetrahedral elements
  
      Element       Quality measure     Min angle        Max angle     Adjusted nodes 
 ------------------ ---------------- ---------------- ---------------- -------------- 
        PART-1-1.65       0.00655892          17.4082          140.809       NO       
        PART-1-1.73        0.0188138          23.7726          150.368       NO       
        PART-1-1.87       0.00791696          5.43866          162.558       NO       
       PART-1-1.110       0.00233982          23.3466           158.38       NO       
       PART-1-1.145        0.0168919          19.9833          123.391       NO       
       PART-1-1.188       0.00905387          33.1384          154.694       NO       
       PART-1-1.213         0.146129          9.41484          153.576       NO       
       PART-1-1.320       0.00834201          17.6108          156.611       NO       
       PART-1-1.337       0.00522435          11.9963          157.153       NO       
       PART-1-1.405         0.121107          9.35739          155.334       NO       
       PART-1-1.406       0.00435896          9.68779          164.427       NO       
       PART-1-1.450         0.210532          9.72422          153.128       NO       
       PART-1-1.589       0.00353952          25.2227           160.41       NO       
       PART-1-1.632       0.00353919           25.222           160.41       NO       
       PART-1-1.641         0.117649          9.87329           160.41       NO       
       PART-1-1.649        0.0115938          17.9845          148.013       NO       
       PART-1-1.787       0.00796472          18.0654          159.364       NO       
       PART-1-1.826       0.00353914          25.2232           160.41       NO       
       PART-1-1.918         0.129273          9.50763          153.629       NO       
      PART-1-1.1096         0.111051          8.77411          156.636       NO       
      PART-1-1.1099       0.00226962          27.0565          137.097       NO       
      PART-1-1.1184         0.132403           9.3626           155.03       NO       
      PART-1-1.1195        0.0903889          9.58707          154.577       NO       
      PART-1-1.1201       0.00504166          16.3618          161.457       NO       
      PART-1-1.1346        0.0783446          13.0244           160.01       NO       
      PART-1-1.1352         0.130882          9.74078          153.829       NO       
      PART-1-1.1358       0.00814845          11.2041          160.498       NO       
      PART-1-1.1519       0.00477981          17.1724          161.643       NO       
      PART-1-1.1686       0.00812432          32.4136           155.72       NO       
      PART-1-1.1715       0.00523604          12.7155          164.153       NO       
      PART-1-1.1777       0.00122242          15.2031          166.999       NO       
      PART-1-1.1795        0.0162323            18.26          155.625       NO       
      PART-1-1.1797        0.0188087          19.9944          156.434       NO       
      PART-1-1.1820       0.00418424          15.5215          162.254       NO       
      PART-1-1.1865         0.119443          9.64023          154.844       NO       
      PART-1-1.2000       0.00449297          15.3225          158.105       NO       
      PART-1-1.2116         0.116577          9.47049           152.32       NO       
      PART-1-1.2271        0.0155724           10.498          157.315       NO       
      PART-1-1.2624        0.0032653          19.5614          161.212       NO       
      PART-1-1.2638        0.0129825          11.2585          137.323       NO       
      PART-1-1.2719       0.00366669          15.2466          161.891       NO       
      PART-1-1.2823       0.00248096          15.5383          164.885       NO       
      PART-1-1.2954        0.0763243          13.7196          160.116       NO       
      PART-1-1.2956        0.0114863          9.46145          158.449       NO       
      PART-1-1.2980       0.00659364          24.3869          159.589       NO       
      PART-1-1.3062       0.00661005          16.2086          160.434       NO       
      PART-1-1.3080         0.128935          9.55065          155.407       NO       
      PART-1-1.3155       0.00661002          16.2085          160.434       NO       
      PART-1-1.3166        0.0148279          16.5964          155.604       NO       
      PART-1-1.3199       0.00818963          10.0769          161.714       NO       
      PART-1-1.3310        0.0183302          10.7329          159.779       NO       
      PART-1-1.3418        0.0191547          26.9075          134.887       NO       
      PART-1-1.3613       0.00226787          15.0375          161.841       NO       
      PART-1-1.3789         0.154907          9.97701          152.264       NO       
      PART-1-1.4191        0.0134049          8.90235          158.744       NO       
      PART-1-1.4218       0.00303743          16.5073          159.535       NO       
      PART-1-1.4220        0.0180846          28.5987          153.817       NO       
      PART-1-1.4342       0.00219524          17.8098          163.593       NO       
      PART-1-1.4458       0.00934552          8.87557          159.222       NO       
      PART-1-1.4599       0.00448926          21.5947          158.512       NO       
      PART-1-1.4754        0.0740883          7.90043          161.713       NO       
      PART-1-1.4755       0.00668924          23.3763          159.856       NO       
      PART-1-1.4778         0.016895          10.1829          156.714       NO       
      PART-1-1.4837        0.0029675          23.8039          162.044       NO       
      PART-1-1.4903       0.00645045          24.3311          159.745       NO       
      PART-1-1.4908        0.0136474          10.4527          156.775       NO       
      PART-1-1.4989        0.0106528          23.3725          155.109       NO       
      PART-1-1.5009        0.0106022          28.7114          151.751       NO       
      PART-1-1.5046        0.0103211           9.7508          158.074       NO       
      PART-1-1.5125       0.00913192          22.7201          158.525       NO       
      PART-1-1.5192        0.0136203          8.26183          164.219       NO       
      PART-1-1.5316       0.00468058          10.9301          163.923       NO       
      PART-1-1.5325       0.00631411          18.7735          157.158       NO       
      PART-1-1.5366       0.00907031          15.6771          156.875       NO       
      PART-1-1.5659       0.00835196          27.0618          147.806       NO       
      PART-1-1.5695         0.015293          9.54075          161.812       NO       
      PART-1-1.5840        0.0160067          14.7927          129.035       NO       
      PART-1-1.5924          0.01722          26.6228          141.284       NO       
      PART-1-1.6207        0.0903955          9.58732          154.576       NO       
      PART-1-1.6245        0.0193263          19.0433           148.86       NO       
      PART-1-1.6377         0.017432          24.2562          153.932       NO       
      PART-1-1.6694       0.00274489          16.0339          162.105       NO       
      PART-1-1.6733       0.00183069          16.9542          164.134       NO       
      PART-1-1.6758       0.00565157           17.531          160.917       NO       
      PART-1-1.6859         0.120745           9.0156          156.488       NO       
      PART-1-1.6910          0.14798          9.36346          153.872       NO       
      PART-1-1.6936        0.0211109          5.43863          161.755       NO       
      PART-1-1.6996        0.0100609          17.4088          150.909       NO       
      PART-1-1.7292        0.0167221          20.6757          156.542       NO       
      PART-1-1.7370       0.00625002          24.2783          159.807       NO       
      PART-1-1.7460       0.00230673          8.61686          168.072       NO       
      PART-1-1.7480       0.00398395          16.7963          158.776       NO       
      PART-1-1.7549        0.0174618          18.7982          150.169       NO       
      PART-1-1.7558         0.113992          9.57277          162.496       NO       
      PART-1-1.7716         0.030102          9.78633          160.611       NO       
      PART-1-1.7722       0.00494484          16.8703          159.229       NO       
      PART-1-1.7791         0.031803          9.85933          160.416       NO       
      PART-1-1.7893        0.0129093           27.627          122.945       NO       
      PART-1-1.8004        0.0162224          9.95862          157.051       NO       
      PART-1-1.8027        0.0179145          34.4473          150.239       NO       
      PART-1-1.8064        0.0133854          10.4349          156.976       NO       
      PART-1-1.8119       0.00311455          20.7691          162.794       NO       
      PART-1-1.8173       0.00226167          23.6168          163.112       NO       
      PART-1-1.8206        0.0135055          30.1106          154.064       NO       
      PART-1-1.8369         0.119434           9.6774           151.76       NO       
      PART-1-1.8585       0.00792771          12.9715          160.259       NO       
      PART-1-1.8588       0.00465694          15.6745          159.538       NO       
      PART-1-1.8635       0.00538393          16.6667          161.133       NO       
      PART-1-1.8648        0.0193364          10.6564          159.789       NO       
      PART-1-1.8650       0.00497636          11.7844          157.153       NO       
      PART-1-1.8651        0.0223707          3.59858          130.755       NO       
      PART-1-1.8661        0.0572681          8.80656          152.963       NO       
      PART-1-1.8938         0.129778          9.73584          153.491       NO       
      PART-1-1.9057        0.0178639          26.0425           151.87       NO       
      PART-1-1.9065       0.00819347          17.7384          159.395       NO       
      PART-1-1.9111         0.139198          9.61161          151.573       NO       
      PART-1-1.9120        0.0122335          21.1375          153.843       NO       
      PART-1-1.9152        0.0102268          4.87254          166.755       NO       
      PART-1-1.9194         0.121218          9.08225          155.593       NO       
      PART-1-1.9261        0.0183256          10.7323          159.779       NO       
      PART-1-1.9266       0.00620969           24.685           157.65       NO       
      PART-1-1.9283       0.00572102          16.8026          160.989       NO       
      PART-1-1.9323       0.00215163          22.8211          162.185       NO       
      PART-1-1.9348        0.0147515          15.4383          156.005       NO       
      PART-1-1.9365        0.0113754           8.9875          158.748       NO       
      PART-1-1.9491         0.132835          9.15142          163.568       NO       
      PART-1-1.9594        0.0190713          20.5853          156.089       NO       
      PART-1-1.9627        0.0129619          28.8578          121.034       NO       
      PART-1-1.9706       0.00463594          24.5439          155.212       NO       
      PART-1-1.9734        0.0545731          8.33836          162.483       NO       
      PART-1-1.9958       0.00201289          18.8049          162.665       NO       
     PART-1-1.10131         0.199573          9.29223          154.264       NO       
     PART-1-1.10421       0.00595256          18.5292          160.661       NO       
     PART-1-1.10493        0.0032626          22.3113           160.29       NO       
     PART-1-1.10552       0.00591443          21.6804          159.275       NO       
     PART-1-1.10562       0.00368567          16.8872          158.623       NO       
     PART-1-1.10668        0.0162127          23.8497          152.389       NO       
     PART-1-1.10818         0.018656          23.0999          156.281       NO       
     PART-1-1.10884         0.117924          9.13076          155.577       NO       
     PART-1-1.10924        0.0174624           18.799          150.166       NO       
     PART-1-1.10931        0.0195406           19.187          154.858       NO       
     PART-1-1.10943       0.00497535          16.8952           159.22       NO       
     PART-1-1.11099      0.000933394          17.0052          166.308       NO       
     PART-1-1.11205       0.00163324          15.6399          163.212       NO       
     PART-1-1.11366        0.0013143          13.6167          164.131       NO       
     PART-1-1.11369         0.186908          9.97268          155.587       NO       
     PART-1-1.11437       0.00183147          16.4551           166.08       NO       
     PART-1-1.11447       0.00156216          13.4423          163.724       NO       
     PART-1-1.11483        0.0181963          17.3578          155.531       NO       
     PART-1-1.11503       0.00709017          9.39381          163.097       NO       
     PART-1-1.11559       0.00641883          17.0529          160.586       NO       
     PART-1-1.11668       0.00717416          20.5196           146.58       NO       
     PART-1-1.11756       0.00520749          22.2733          159.904       NO       
     PART-1-1.11816        0.0023639          18.5614          163.393       NO       
     PART-1-1.11853        0.0046345          17.6175          161.792       NO       
     PART-1-1.11994       0.00604842          17.9629          160.973       NO       
     PART-1-1.12009        0.0364539          9.60819          152.658       NO       
     PART-1-1.12076        0.0052451          19.8778          157.595       NO       
     PART-1-1.12091         0.146827          9.50505             153.       NO       
     PART-1-1.12271       0.00538712          22.5564          159.835       NO       
     PART-1-1.12285       0.00853058          17.4662          152.378       NO       
     PART-1-1.12330         0.106031          8.86541          156.647       NO       
     PART-1-1.12357         0.001849          20.1101          163.171       NO       
     PART-1-1.12389        0.0289543          8.24428          157.801       NO       
     PART-1-1.12429        0.0104454          22.6046            157.1       NO       
     PART-1-1.12539         0.016807           23.917           146.84       NO       
     PART-1-1.12547       0.00143551          12.8129          163.725       NO       
     PART-1-1.12723       0.00590331          18.5476          158.196       NO       
     PART-1-1.12727       0.00572131          16.8029          160.989       NO       
     PART-1-1.12755       0.00631438          18.7734          157.157       NO       
     PART-1-1.12853      1.57627E-21      0.000165889             180.       NO       
     PART-1-1.12857       1.6144E-21      0.000165885             180.       NO       
     PART-1-1.12974       0.00125929          14.0115          164.408       NO       
     PART-1-1.12991        0.0169437          13.3836           154.23       NO       
     PART-1-1.12992        0.0169975          21.3964          153.698       NO       
     PART-1-1.13042      1.99983E-18       0.00126181          179.998       NO       
     PART-1-1.13050       0.00293798          16.4244           161.97       NO       
     PART-1-1.13056       0.00335878          16.6538          161.233       NO       
     PART-1-1.13111        0.0156629          22.0261          154.054       NO       
     PART-1-1.13112       0.00265888          15.5442          161.585       NO       
     PART-1-1.13163       8.6025E-16       0.00449862          179.994       NO       
     PART-1-1.13168        0.0192384          16.8806            153.1       NO       
     PART-1-1.13214       2.2021E-21      0.000229865             180.       NO       
     PART-1-1.13219      3.76082E-19      0.000830817          179.999       NO       
     PART-1-1.13221        0.0112997          11.5358          153.543       NO       
     PART-1-1.13223       0.00252006          15.5875          161.945       NO       
     PART-1-1.13240       0.00966143          11.7903          157.309       NO       
     PART-1-1.13251      6.32142E-16       0.00416688          179.994       NO       
     PART-1-1.13270       0.00385844          13.8861          159.112       NO       
     PART-1-1.13305       0.00256463          15.8208          162.884       NO       
     PART-1-1.13306        0.0151904          10.3358          157.174       NO       
     PART-1-1.13307       0.00216959          12.9528          159.681       NO       
     PART-1-1.13308       0.00204781           9.1756          161.112       NO       
     PART-1-1.13323      7.51407E-20      0.000435373          179.999       NO       
     PART-1-1.13330      8.59471E-16       0.00449862          179.994       NO       
     PART-1-1.13349      1.58566E-21      0.000165887             180.       NO       
     PART-1-1.13357      3.62159E-25      2.07381E-05             180.       NO       
     PART-1-1.13360        8.012E-33      -1.7053E-13             180.       NO       
     PART-1-1.13361      3.80128E-25      2.07029E-05             180.       NO       
     PART-1-1.13362      7.52968E-20      0.000435377          179.999       NO       
     PART-1-1.13373      1.08965E-24      2.69582E-05             180.       NO       
     PART-1-1.13381      2.89737E-21      0.000192839             180.       NO       
     PART-1-1.13386      1.83696E-21      0.000172103             180.       NO       
     PART-1-1.13398      9.33479E-22      0.000145152             180.       NO       
     PART-1-1.13401      5.47213E-17       0.00225971          179.997       NO       
     PART-1-1.13406               0.      -1.7053E-13             180.       NO       
     PART-1-1.13411      4.63001E-17       0.00216727          179.997       NO       
     PART-1-1.13520       0.00878776          11.6422          157.286       NO       
     PART-1-1.13718      6.26151E-20      0.000414637          179.999       NO       
     PART-1-1.13749      7.54848E-20      0.000435373          179.999       NO       
     PART-1-1.13758      1.55675E-21      0.000165883             180.       NO       
     PART-1-1.13814      2.39942E-22      0.000103592             180.       NO       
     PART-1-1.13895      7.51407E-20      0.000435374          179.999       NO       
     PART-1-1.14035      1.59463E-21      0.000165889             180.       NO       
     PART-1-1.14081        0.0180883           18.066          153.303       NO       
     PART-1-1.14141       0.00348541          10.5951           158.44       NO       
     PART-1-1.14260       0.00200493          11.7897           162.13       NO       
     PART-1-1.14261       0.00580223          17.2398          153.246       NO       
     PART-1-1.14263       0.00874035          17.8733          157.669       NO       
     PART-1-1.14267        0.0033438           10.243          159.678       NO       
     PART-1-1.14275        0.0119302          12.3829           154.89       NO       
     PART-1-1.14276        0.0118326          18.5649          156.287       NO       
     PART-1-1.14278       0.00267799          10.4124          160.627       NO       
     PART-1-1.14279       0.00474373          16.8356          154.408       NO       
     PART-1-1.14282        0.0169584          12.3115          153.402       NO       
     PART-1-1.14283       0.00254011          12.1813          161.435       NO       
     PART-1-1.14506      9.57684E-22      0.000145152             180.       NO       
     PART-1-1.14606        0.0188091          13.7392          152.553       NO       
     PART-1-1.14633      9.19223E-22      0.000145149             180.       NO       
     PART-1-1.14666       0.00241712          14.8499          158.321       NO       
     PART-1-1.14687      8.58356E-16       0.00449862          179.994       NO       
     PART-1-1.14804      9.19242E-22      0.000145154             180.       NO       
     PART-1-1.14840      1.57628E-21      0.000165885             180.       NO       
     PART-1-1.14845       0.00398225          15.2699          156.061       NO       
     PART-1-1.14906        0.0184604          16.9986           152.98       NO       
     PART-1-1.14942      1.28193E-31      -1.7053E-13             180.       NO       
     PART-1-1.14972      1.61449E-21      0.000165887             180.       NO       
     PART-1-1.14999      1.57628E-21      0.000165887             180.       NO       
     PART-1-1.15082        0.0135186          11.0657          155.016       NO       
     PART-1-1.15084         0.010134          20.0112          156.675       NO       
     PART-1-1.15086       0.00772977          11.3559          157.155       NO       
     PART-1-1.15087       0.00340442          10.6243          158.992       NO       
     PART-1-1.15091       0.00751491          17.4396          158.045       NO       
     PART-1-1.15096       0.00273278          15.9663          161.266       NO       
     PART-1-1.15097       0.00461229          16.9432          154.503       NO       
     PART-1-1.15108       0.00258813           10.015          161.128       NO       
     PART-1-1.15109       0.00535994          16.7219          153.896       NO       
     PART-1-1.15141      1.61446E-21      0.000165885             180.       NO       
     PART-1-1.15182      1.08336E-15       0.00476812          179.994       NO       
     PART-1-1.15236         0.019065           13.572          153.145       NO       
     PART-1-1.15241        0.0149956          20.3298          154.829       NO       
     PART-1-1.15242       0.00270157          15.5037          161.719       NO       
     PART-1-1.15244       0.00341607          13.1109          159.673       NO       
     PART-1-1.15252       0.00342291            9.915           159.68       NO       
     PART-1-1.15254        0.0103553          11.1893          156.531       NO       
     PART-1-1.15256       0.00327248          17.0769          161.136       NO       
     PART-1-1.15258        0.0027231          12.9017          160.892       NO       
     PART-1-1.15261       0.00292468          15.6746          157.133       NO       
     PART-1-1.15262        0.0128308          12.3296          151.999       NO       
     PART-1-1.15263       0.00264854          10.7174          159.805       NO       
     PART-1-1.15324         0.016922          17.3144          153.813       NO       
     PART-1-1.15346      9.31889E-22      0.000145152             180.       NO       
     PART-1-1.15487      9.57283E-22      0.000145154             180.       NO       
     PART-1-1.15526      3.98689E-25      2.07205E-05             180.       NO       
     PART-1-1.15693       0.00320802          12.7403            160.6       NO       
     PART-1-1.15695        0.0155191             19.4          154.776       NO       
     PART-1-1.15696        0.0146859          20.9498          153.338       NO       
     PART-1-1.15703      6.45213E-16       0.00418761          179.994       NO       
     PART-1-1.15705        0.0016588          9.23368          161.915       NO       
     PART-1-1.15706      0.000579737          8.72674          163.877       NO       
     PART-1-1.15715       0.00307333          16.8042          161.586       NO       
     PART-1-1.15763        0.0178291          13.4089           149.89       NO       
     PART-1-1.15764       0.00413332           16.769           155.08       NO       
     PART-1-1.15765       0.00293796          10.4399          159.494       NO       
     PART-1-1.15783       0.00367394          12.7251          159.977       NO       
     PART-1-1.15956        0.0196926            17.78          153.036       NO       
     PART-1-1.16396        0.0149169          21.2676          152.933       NO       
     PART-1-1.16398       0.00460049           10.155          161.214       NO       
     PART-1-1.16471        0.0158641          17.1107          154.294       NO       
     PART-1-1.16520        0.0191063          22.1058           151.23       NO       
     PART-1-1.16678        0.0123607          16.5331          155.625       NO       
     PART-1-1.16684       0.00385279          14.9152          158.732       NO       
     PART-1-1.16685       0.00325521          17.8089          160.144       NO       
     PART-1-1.17165      0.000118187             6.62          167.449       NO       
     PART-1-1.17546        0.0123613          11.6203          153.727       NO       
     PART-1-1.17611        0.0173202          17.5181          153.722       NO       
     PART-1-1.17637      6.82898E-05          6.54808          167.846       NO       
     PART-1-1.17640      5.94307E-05          6.01481          169.567       NO       
     PART-1-1.17642      5.80517E-05          7.59487          169.951       NO       
     PART-1-1.17643      0.000506306          10.4389          165.479       NO       
     PART-1-1.17644      9.86697E-05          6.93165          165.447       NO       
     PART-1-1.17646      0.000493913          12.2019          164.499       NO       
     PART-1-1.17647      6.75085E-05          8.53053          171.531       NO       
     PART-1-1.17649        0.0147911          16.5898          154.315       NO       
     PART-1-1.17660       0.00283258          10.0663          158.487       NO       
     PART-1-1.17661      6.35713E-05          8.62602          169.934       NO       
     PART-1-1.17663      0.000199795          10.6909          168.872       NO       
     PART-1-1.17664      0.000143054          7.17618           165.31       NO       
     PART-1-1.17665      9.85044E-05          8.12946          168.794       NO       
     PART-1-1.17744      6.12351E-05          8.99429          171.136       NO       
     PART-1-1.17949        0.0133692          16.6221          155.158       NO       
     PART-1-1.18065         0.014267          21.4447          154.553       NO       
     PART-1-1.18067        0.0108108          12.2528          155.867       NO       
     PART-1-1.18072       0.00416541          16.0731          155.422       NO       
     PART-1-1.18073       0.00310847          10.1804          159.403       NO       
     PART-1-1.18082        0.0104838          19.0607          156.363       NO       
     PART-1-1.18089        0.0168538          20.2981          154.037       NO       
     PART-1-1.18092       0.00287675          10.4783          160.039       NO       
     PART-1-1.18094       0.00396377          16.0103          155.673       NO       
     PART-1-1.18096        0.0141551          20.7311          153.502       NO       
     PART-1-1.18097        0.0194194           12.773          151.337       NO       
     PART-1-1.18102       0.00366589          13.3221          159.702       NO       
     PART-1-1.18164       0.00334503          10.3591          158.988       NO       
     PART-1-1.18167        0.0169511          20.4981          153.983       NO       
     PART-1-1.18168        0.0111488          19.2613          155.966       NO       
     PART-1-1.18171        0.0139512          21.2382          154.747       NO       
     PART-1-1.18173       0.00268178          15.9172          161.471       NO       
     PART-1-1.18174       0.00265659          12.8377          160.739       NO       
     PART-1-1.18485        0.0199394          12.8437          153.445       NO       
     PART-1-1.18530       0.00276693          12.9102           160.51       NO       
     PART-1-1.18568        0.0189317          12.4463          153.762       NO       
     PART-1-1.18571       0.00360291          17.0177          160.995       NO       
     PART-1-1.18711       0.00502414          10.5238          159.147       NO       
     PART-1-1.18716        0.0016182          11.8581          162.784       NO       
     PART-1-1.18725       0.00314234          10.7688          158.698       NO       
     PART-1-1.18726       0.00255088          16.0872          161.384       NO       
     PART-1-1.18818        0.0152045          15.5919          154.174       NO       
     PART-1-1.19097        0.0165344          21.0459          153.517       NO       
     PART-1-1.19146         0.019942          22.9595          150.854       NO       
     PART-1-1.19155       0.00583892          17.0222          153.299       NO       
     PART-1-1.19272        0.0153481          17.1582          154.313       NO       
     PART-1-1.19370       0.00356012          10.4185          158.121       NO       
     PART-1-1.19491       0.00499423           13.973          158.133       NO       
     PART-1-1.19517       0.00477194          10.3143          158.518       NO       
     PART-1-1.19541       0.00727496          10.7874          157.777       NO       
     PART-1-1.19542       0.00201343          10.3398          160.518       NO       
     PART-1-1.19545       0.00923032          18.7211          156.579       NO       
     PART-1-1.19555       0.00200077          14.7412          159.057       NO       
     PART-1-1.19560       0.00555448          17.3027          158.682       NO       
     PART-1-1.19562       0.00836277          11.5865          153.794       NO       
     PART-1-1.19566       0.00228976          12.7555          161.278       NO       
     PART-1-1.19580        0.0085376          11.7729          153.056       NO       
     PART-1-1.19581       0.00211349          15.1517          158.671       NO       
     PART-1-1.19582        0.0089557          18.3696          156.651       NO       
     PART-1-1.19587       0.00286815          16.9603          161.487       NO       
     PART-1-1.19588       0.00615352          10.2715          158.683       NO       
     PART-1-1.19615       0.00250174          13.2532          160.902       NO       
     PART-1-1.19616       0.00361194          11.0982          157.433       NO       
     PART-1-1.19619       0.00996893          19.0971          155.797       NO       
     PART-1-1.19620        0.0066168          17.8924          158.943       NO       
     PART-1-1.19621       0.00294714          16.9123          160.702       NO       
     PART-1-1.19651       0.00214294          14.9825          162.459       NO       
     PART-1-1.19674      0.000629591          10.8123          164.888       NO       
     PART-1-1.19680       0.00121811          13.6453          165.068       NO       
     PART-1-1.19681      0.000990271          8.71773           163.92       NO       
     PART-1-1.19682       0.00186979          15.1132           162.56       NO       
     PART-1-1.19784        0.0181438          16.9571          152.785       NO       
     PART-1-1.19788        0.0172658          21.7823          152.194       NO       
     PART-1-1.19886        0.0165401          16.4301          154.377       NO       
     PART-1-1.20068        0.0196828          16.9431          152.477       NO       
     PART-1-1.20216       0.00214123          9.25404          161.417       NO       
     PART-1-1.20219       0.00270102          15.7364          162.683       NO       
     PART-1-1.20220       0.00720209          15.2184          155.688       NO       
     PART-1-1.20503       0.00261128          10.5136          159.993       NO       
     PART-1-1.20532        0.0132434          11.1393          154.352       NO       
     PART-1-1.20534        0.0123873          20.4259          155.398       NO       
     PART-1-1.20535       0.00382923          14.3008          158.799       NO       
     PART-1-1.20551       0.00321445          16.8607          161.601       NO       
     PART-1-1.20566       0.00242337          14.0613          158.702       NO       
     PART-1-1.20567       0.00581115          15.0365          156.985       NO       
     PART-1-1.20580       0.00258574          10.1224          159.913       NO       
     PART-1-1.20603        0.0159768          20.9732          152.634       NO       
     PART-1-1.20746        0.0032332          15.3461          161.351       NO       
     PART-1-1.20750       0.00422505          9.57378          160.248       NO       
     PART-1-1.20774       0.00283309           17.272          160.683       NO       
     PART-1-1.21275       0.00297196          17.6326          160.292       NO       
     PART-1-1.21290        0.0080831          18.6327          156.162       NO       
     PART-1-1.21405       0.00278165          15.6071          157.378       NO       
     PART-1-1.21406       0.00333915          17.2261          161.004       NO       
     PART-1-1.21407       0.00949407          10.9763          157.023       NO       
     PART-1-1.21409       0.00270774          10.8253          159.595       NO       
     PART-1-1.21412       0.00715387          18.0074          157.542       NO       
     PART-1-1.21498       0.00301049          16.3245          161.084       NO       
     PART-1-1.21499       0.00391301          15.3788          156.091       NO       
     PART-1-1.21544       0.00217156          14.9034          162.578       NO       
     PART-1-1.21569       0.00170198          14.5627          163.333       NO       
     PART-1-1.21570      8.03983E-05          9.54318          169.174       NO       
     PART-1-1.21604       0.00255657           15.708          161.724       NO       
     PART-1-1.21607        0.0115829          19.4886          155.817       NO       
     PART-1-1.21608        0.0115714          12.3888          155.696       NO       
     PART-1-1.21614       0.00319528           10.188          159.269       NO       
     PART-1-1.21616       0.00413147          15.9464           155.53       NO       
     PART-1-1.21617        0.0153123          21.7026          154.125       NO       
     PART-1-1.21692       0.00277284          15.2782          162.965       NO       
     PART-1-1.21798      0.000790944          12.8659          162.823       NO       
     PART-1-1.21874        0.0182365          16.8239           153.15       NO       
     PART-1-1.21885       0.00376902          10.3472           158.38       NO       
     PART-1-1.21889       0.00789032          17.9029          158.018       NO       
     PART-1-1.21922        0.0105361          12.1069          156.194       NO       
     PART-1-1.22003       0.00422588           14.127           158.55       NO       
     PART-1-1.22052        0.0033664          16.3242          156.227       NO       
     PART-1-1.22053        0.0065578          18.2424          158.927       NO       
     PART-1-1.22109       0.00381171          16.4881          155.608       NO       
     PART-1-1.22235      0.000796595          9.08306          162.202       NO       
     PART-1-1.22398       0.00294473          13.8842          160.134       NO       
     PART-1-1.22417       0.00459171          10.1524          160.745       NO       
     PART-1-1.22422       0.00279306          15.6196          162.263       NO       
     PART-1-1.22423       0.00248665          16.0157          162.217       NO       
     PART-1-1.22429       0.00317465          14.1907          157.569       NO       
     PART-1-1.22571      0.000390862          11.3869          167.666       NO       
     PART-1-1.22573      0.000431823          9.71633          165.988       NO       
     PART-1-1.22595       0.00274742          16.2071          161.148       NO       
     PART-1-1.22614      0.000134898          9.95428          169.589       NO       
     PART-1-1.22615      0.000103564          9.31578          170.504       NO       
     PART-1-1.22621        0.0045669          14.6208          155.841       NO       
     PART-1-1.22624       0.00215365           8.7045          162.155       NO       
     PART-1-1.22725        0.0034601          10.1367          159.213       NO       
     PART-1-1.22775      0.000572885          8.13693           163.83       NO       
     PART-1-1.22776       0.00201491          10.2576          161.191       NO       
     PART-1-1.22919        0.0061097           16.666          153.316       NO       
     PART-1-1.22921       0.00469076          13.3846          158.636       NO       
     PART-1-1.22947       0.00022895          7.71283          165.613       NO       
     PART-1-1.22948       0.00110066          11.4654           162.98       NO       
     PART-1-1.22973       0.00302008          16.6263          160.868       NO       
     PART-1-1.22987        0.0182999          16.8398            153.1       NO       
     PART-1-1.23005       0.00344996          13.8115            159.5       NO       
     PART-1-1.23010       0.00322633          15.2755          156.963       NO       
     PART-1-1.23011       0.00374631          10.6905          157.899       NO       
     PART-1-1.23019         0.014288          20.4991          154.211       NO       
     PART-1-1.23034       0.00384719          17.1923          160.704       NO       
     PART-1-1.23105        0.0183019          20.0208          154.344       NO       
     PART-1-1.23108       0.00654138          17.2575          152.644       NO       
     PART-1-1.23125        0.0180874          17.3305          153.121       NO       
     PART-1-1.23192         0.015182           12.969          154.525       NO       
     PART-1-1.23196        0.0141978           20.214          154.867       NO       
     PART-1-1.23197       0.00330267          13.2292          159.785       NO       
     PART-1-1.23203       0.00385626          16.7149          160.935       NO       
     PART-1-1.23207        0.0100249          19.1967          155.551       NO       
     PART-1-1.23208       0.00302401          10.2052          160.764       NO       
     PART-1-1.23221        0.0132615          11.7473          155.515       NO       
     PART-1-1.23226       0.00996229          19.2879          155.635       NO       
     PART-1-1.23229       0.00299794          15.4406          157.149       NO       
     PART-1-1.23230        0.0139381          12.2051          152.421       NO       
     PART-1-1.23235       0.00323621          13.2855          160.086       NO       
     PART-1-1.23239        0.0106293          17.8906          149.771       NO       
     PART-1-1.23585       0.00187613          9.75651          158.292       NO       
     PART-1-1.23586      0.000676303          13.2385           165.81       NO       
     PART-1-1.23587        0.0005828          12.4404          163.975       NO       
     PART-1-1.23608      0.000930243          11.2508          163.422       NO       
     PART-1-1.23615       0.00265739          16.0535          161.251       NO       
     PART-1-1.23618      0.000402915           7.7667          165.581       NO       
     PART-1-1.23641        0.0107273          19.4894          155.165       NO       
     PART-1-1.23919       0.00649768          17.2167          158.365       NO       
     PART-1-1.23925        0.0142435          12.8035          150.773       NO       
     PART-1-1.23936        0.0035586          16.3437          161.443       NO       
     PART-1-1.24161       0.00237085          15.0551          162.346       NO       
     PART-1-1.24275       0.00934473           14.418          157.402       NO       
     PART-1-1.24305        0.0191161          22.0153          151.616       NO       
     PART-1-1.24360       0.00518452           15.922          154.521       NO       
     PART-1-1.24413       0.00300558          9.53488          160.241       NO       
     PART-1-1.24526       0.00364178          9.41654          160.585       NO       
     PART-1-1.24539        0.0043678          13.1854          158.662       NO       
     PART-1-1.24546       0.00900289          17.3877          150.963       NO       
     PART-1-1.24549       0.00365345          15.8336          160.842       NO       
     PART-1-1.24550       0.00477336          9.70371          159.524       NO       
     PART-1-1.24554       0.00253295          11.1163          159.494       NO       
     PART-1-1.24555       0.00903443          12.2928          151.725       NO       
     PART-1-1.24558       0.00710092           17.239          157.832       NO       
     PART-1-1.24559       0.00171573          12.0242           162.76       NO       
     PART-1-1.24650        0.0171618          22.2269          151.902       NO       
     PART-1-1.24868        0.0196221          17.5574          152.533       NO       
     PART-1-1.24971        0.0181666            17.54          153.311       NO       
     PART-1-1.25014       0.00372881          16.4329          160.405       NO       
     PART-1-1.25186         0.019519          22.5059          151.171       NO       
     PART-1-1.25190       0.00327652          16.2942          161.574       NO       
     PART-1-1.25193       0.00330675           12.646          160.244       NO       
     PART-1-1.25255       0.00245338          9.99861          160.087       NO       
     PART-1-1.25260       0.00678054          17.6454          158.384       NO       
     PART-1-1.25438       0.00393486          15.8366          155.812       NO       
     PART-1-1.25439        0.0145848          21.3499          154.486       NO       
     PART-1-1.25443       0.00378124            13.96          159.312       NO       
     PART-1-1.25456       0.00710755          11.5419          157.269       NO       
     PART-1-1.25462       0.00923271          19.8557          156.932       NO       
     PART-1-1.25464       0.00198341          15.0684          162.605       NO       
     PART-1-1.25509       0.00341104           10.529           157.95       NO       
     PART-1-1.25512       0.00276599          16.5235          161.228       NO       
     PART-1-1.25515       0.00596681          16.9931          153.267       NO       
     PART-1-1.25523       0.00367443          10.6896          159.604       NO       
     PART-1-1.25525       0.00452753          13.4762          159.082       NO       
     PART-1-1.25589        0.0120743          19.9845          154.389       NO       
     PART-1-1.25591        0.0024161          14.4115          158.522       NO       
     PART-1-1.25592        0.0122204          11.4004          154.351       NO       
     PART-1-1.25593         0.016155          12.3407          154.902       NO       
     PART-1-1.25602       0.00662713           15.341          156.439       NO       
     PART-1-1.25603        0.0027168          14.2715          158.163       NO       
     PART-1-1.25605       0.00368256          17.2729          161.067       NO       
     PART-1-1.25616         0.010949          15.8673          155.204       NO       
     PART-1-1.25618        0.0109286          20.2631          154.829       NO       
     PART-1-1.25751       0.00147141          11.4018          163.197       NO       
     PART-1-1.25753       0.00236928          15.5711          161.819       NO       
     PART-1-1.25763       0.00837635          19.4082          157.611       NO       
     PART-1-1.25764       0.00644414          11.1193          157.662       NO       
     PART-1-1.25765       0.00601354           16.805          159.046       NO       
     PART-1-1.25808       0.00171496          11.8746          162.355       NO       
     PART-1-1.26234       0.00287733          16.5771          161.417       NO       
     PART-1-1.26441       0.00318428           16.512          161.662       NO       
     PART-1-1.26450        0.0195702          21.3136          153.164       NO       
     PART-1-1.26478       0.00419345          14.3701          158.438       NO       
     PART-1-1.26479       0.00286693          16.4377          161.186       NO       
     PART-1-1.26480        0.0172213          21.5614          153.123       NO       
     PART-1-1.26571        0.0105034          12.2543           155.76       NO       
     PART-1-1.26575       0.00144592          14.4502          160.451       NO       
     PART-1-1.26586       0.00215647          13.4251           161.37       NO       
     PART-1-1.26591       0.00237607          15.8854          157.871       NO       
     PART-1-1.26594       0.00309209          17.2644          161.034       NO       
     PART-1-1.26772        0.0163996          16.5108          154.168       NO       
     PART-1-1.26812        0.0128432          20.6751          154.033       NO       
     PART-1-1.26820        0.0170694          12.3395          154.077       NO       
     PART-1-1.26857       0.00363261          10.3165          158.589       NO       
     PART-1-1.26858       0.00398095          15.5342           155.93       NO       
     PART-1-1.26876        0.0191317          11.6057          154.943       NO       
     PART-1-1.26909       0.00267139          10.2959           160.32       NO       
     PART-1-1.26914       0.00374221          13.4098          159.502       NO       
     PART-1-1.27057       0.00258553          10.2525          160.295       NO       
     PART-1-1.27107        0.0102751          14.5765          157.119       NO       
     PART-1-1.27186        0.0031654          9.86596          159.395       NO       
     PART-1-1.27187       0.00405515          13.9087          158.603       NO       
     PART-1-1.27199       0.00249038          14.4116          158.438       NO       
     PART-1-1.27200        0.0153714          21.2026          153.565       NO       
     PART-1-1.27202       0.00925008          11.8179           157.67       NO       
     PART-1-1.27215       0.00282707          10.7721          159.246       NO       
     PART-1-1.27224        0.0162936          20.6889          153.518       NO       
     PART-1-1.27226        0.0116919            11.35          156.713       NO       
     PART-1-1.27227       0.00870957          18.5161          156.491       NO       
     PART-1-1.27235       0.00348814          17.4289          160.917       NO       
     PART-1-1.27237       0.00827189          19.0738          157.782       NO       
     PART-1-1.27244       0.00185944          12.0854          162.309       NO       
     PART-1-1.27248        0.0167909          12.9681          150.437       NO       
     PART-1-1.27251       0.00630292          10.9153           158.31       NO       
     PART-1-1.27254        0.0033766           15.865          156.417       NO       
     PART-1-1.27255        0.0152759          12.7229          151.616       NO       
     PART-1-1.27264       0.00766107          17.6905           157.69       NO       
     PART-1-1.27281        0.0157143          19.7523          155.004       NO       
     PART-1-1.27282       0.00325702          16.2034          161.715       NO       
     PART-1-1.27297        0.0194619          20.8319          153.773       NO       
     PART-1-1.27304       0.00256696          9.84325          161.203       NO       
     PART-1-1.27306       0.00410191          13.2002          159.168       NO       
     PART-1-1.27324       0.00340125          10.7784          158.577       NO       
     PART-1-1.27368        0.0110627           10.905          154.979       NO       
     PART-1-1.27374       0.00243843          16.1972          161.726       NO       
     PART-1-1.27378        0.0136246          20.9011          154.164       NO       
     PART-1-1.27384        0.0029958           10.356          158.356       NO       
     PART-1-1.27389        0.0107272          19.9203          156.137       NO       
     PART-1-1.27396        0.0004747          11.8107          164.768       NO       
     PART-1-1.27401       0.00295007          10.2983          159.455       NO       
     PART-1-1.27402         0.015739          11.1844          154.638       NO       
     PART-1-1.27405        0.0184739          21.4993          151.723       NO       
     PART-1-1.27429       0.00476037          16.1058          154.816       NO       
     PART-1-1.27432       0.00275265          15.7905           161.52       NO       
     PART-1-1.27511       0.00178188          11.7832          162.561       NO       
     PART-1-1.27514        0.0024837          10.3407          160.037       NO       
     PART-1-1.27570        0.0138204          20.6202           153.59       NO       
     PART-1-1.27571        0.0174447          20.8127          153.678       NO       
     PART-1-1.27653        0.0137657          21.5906          154.677       NO       
     PART-1-1.27655       0.00267996          9.87973          160.327       NO       
     PART-1-1.27659       0.00190137          11.8224          162.098       NO       
     PART-1-1.27661        0.0105478          12.3521          155.324       NO       
     PART-1-1.27666       0.00461243          16.5015          154.712       NO       
     PART-1-1.27669       0.00355123          17.0221          160.717       NO       
     PART-1-1.27671      0.000764144          12.2234          163.254       NO       
     PART-1-1.27674       0.00340637          16.7322          160.245       NO       
     PART-1-1.27675      0.000589259          12.3181          167.112       NO       
     PART-1-1.27680       0.00418302          17.4219          160.296       NO       
     PART-1-1.27684       0.00519004           17.022          153.909       NO       
     PART-1-1.27686       0.00332263          10.7931          159.742       NO       
     PART-1-1.27691        0.0168039          12.3281          155.156       NO       
     PART-1-1.27722       0.00233412          15.3682          162.085       NO       
     PART-1-1.27723       0.00424545          16.1879          155.269       NO       
     PART-1-1.27724       0.00291541          10.0644          159.756       NO       
     PART-1-1.27830        0.0142653          12.3167          153.763       NO       
     PART-1-1.27835        0.0155269          19.3198          146.675       NO       
     PART-1-1.27894        0.0118322          19.1049          155.572       NO       
     PART-1-1.27895       0.00780763          18.3806          157.044       NO       
     PART-1-1.27906       0.00599625          16.7723          158.607       NO       
     PART-1-1.27909       0.00413688          9.56523          159.838       NO       
     PART-1-1.27969       0.00360783          15.3856          156.402       NO       
     PART-1-1.27997      0.000657102           8.8638          162.746       NO       
     PART-1-1.28018      0.000118361          10.0491          169.561       NO       
     PART-1-1.28026        0.0185792          17.9814          153.095       NO       
     PART-1-1.28183       0.00225621          12.3464           161.38       NO       
     PART-1-1.28186        0.0137896          21.4062          154.721       NO       
     PART-1-1.28189       0.00936585            18.62          157.008       NO       
     PART-1-1.28207        0.0167389          20.0541          154.182       NO       
     PART-1-1.28208       0.00306701          10.6018          159.896       NO       
     PART-1-1.28209       0.00442252          16.3871          154.989       NO       
     PART-1-1.28211        0.0146559          20.8864          153.311       NO       
     PART-1-1.28214       0.00356639          13.1551          159.946       NO       
     PART-1-1.28215       0.00323666          16.9232          161.308       NO       
     PART-1-1.28217        0.0141723          19.9145          154.671       NO       
     PART-1-1.28299      4.64817E-05             7.04          170.458       NO       
     PART-1-1.28300      0.000117487          7.05021          167.593       NO       
     PART-1-1.28303      0.000133182          10.1031          170.025       NO       
     PART-1-1.28307      9.53435E-05           9.5428          170.284       NO       
     PART-1-1.28310      7.37129E-05            9.207          169.415       NO       
     PART-1-1.28311       0.00262696          10.5847          157.403       NO       
     PART-1-1.28314       0.00161805           9.9763          161.285       NO       
     PART-1-1.28315       0.00196972          15.6721          163.063       NO       
     PART-1-1.28317      3.99462E-05          7.91465          172.103       NO       
     PART-1-1.28318      0.000462734          7.89513          164.775       NO       
     PART-1-1.28320      0.000159221           7.6278          164.364       NO       
     PART-1-1.28323        0.0167709          21.0158          152.673       NO       
     PART-1-1.28337      0.000905783           13.488          162.193       NO       
     PART-1-1.28343      0.000848042          13.5405          165.684       NO       
     PART-1-1.28345      0.000668829          10.4103          165.095       NO       
     PART-1-1.28350      0.000713184          8.99287          163.719       NO       
     PART-1-1.28355      6.26813E-05          7.39862          170.048       NO       
     PART-1-1.28356       0.00210699            9.496          160.719       NO       
     PART-1-1.28358      7.69916E-05          9.17176          171.006       NO       
     PART-1-1.28359      6.85181E-05          6.54207           168.73       NO       
     PART-1-1.28362      0.000172714          7.75293          163.838       NO       
     PART-1-1.28366       0.00296892          10.8257           156.32       NO       
     PART-1-1.28379       0.00280665          15.0169          161.905       NO       
     PART-1-1.28391       0.00277369          16.0777          161.332       NO       
     PART-1-1.28394       0.00297425          13.1811           160.22       NO       
     PART-1-1.28397        0.0109765          12.1715          156.222       NO       
     PART-1-1.28401        0.0124771          19.7793          155.287       NO       
     PART-1-1.28402       0.00346019          10.4048          158.739       NO       
     PART-1-1.28415       0.00322369          16.7095          161.495       NO       
     PART-1-1.28418       0.00330766          15.3586          156.783       NO       
     PART-1-1.28420        0.0165762          12.2387          152.573       NO       
     PART-1-1.28424        0.0184715          12.5276          153.981       NO       
     PART-1-1.28426        0.0179924          21.4381          153.161       NO       
     PART-1-1.28427       0.00423236          14.1441          158.562       NO       
     PART-1-1.28428        0.0039203           13.648          159.187       NO       
     PART-1-1.28555       0.00262822          13.8136          160.467       NO       
     PART-1-1.28557       0.00669358          10.5484          154.953       NO       
     PART-1-1.28558       0.00343206          11.2936           156.79       NO       
     PART-1-1.28609      2.09911E-20      0.000343773          179.999       NO       
     PART-1-1.28685        0.0191497          12.7922          153.337       NO       
     PART-1-1.28696        0.0129392          16.2628          155.312       NO       
     PART-1-1.28797         0.019241          13.4199          152.884       NO       
     PART-1-1.28896      0.000493436           7.9704          165.151       NO       
     PART-1-1.28897       0.00424828          11.1265          157.998       NO       
     PART-1-1.28908        0.0183982          11.6861          154.532       NO       
     PART-1-1.29036       0.00348598          14.1422          159.099       NO       
     PART-1-1.29166        0.0187614          13.8964          152.633       NO       
     PART-1-1.29292        0.0196274          12.3454          153.328       NO       
     PART-1-1.29298        0.0134016          11.8685          155.843       NO       
     PART-1-1.29413      0.000834764          11.2977          163.951       NO       
     PART-1-1.29415         0.019829          11.8919          153.829       NO       
     PART-1-1.29416       0.00255829          16.0503            161.5       NO       
     PART-1-1.29654        0.0124264          12.3566          156.205       NO       
     PART-1-1.29655        0.0198235          11.9838          152.607       NO       
     PART-1-1.29656       0.00309259          16.5523          160.872       NO       
     PART-1-1.29663        0.0165661          21.0871           153.52       NO       
     PART-1-1.29677       0.00361899          15.3502          156.443       NO       
     PART-1-1.29678       0.00385444          10.5515          158.042       NO       
     PART-1-1.29696       0.00232477          10.1087          160.335       NO       
     PART-1-1.29699       0.00287968          16.5362          161.932       NO       
     PART-1-1.29891       0.00997113          19.5328          155.267       NO       
     PART-1-1.29970      0.000478166          11.9235          167.635       NO       
     PART-1-1.29982       0.00669417          16.6411          158.734       NO       
     PART-1-1.29988       0.00313334           16.326           160.63       NO       
     PART-1-1.29989       0.00966796          19.8057           157.06       NO       
     PART-1-1.29990       0.00329086           10.793          158.824       NO       
     PART-1-1.29992       0.00562554          17.8092          153.102       NO       
     PART-1-1.29993       0.00391665          10.9614           158.61       NO       
     PART-1-1.29996       0.00153478          11.2995          163.358       NO       
     PART-1-1.29998      0.000595057          11.7702           164.14       NO       
     PART-1-1.30003        0.0124627           18.789          156.519       NO       
     PART-1-1.30004        0.0026296          11.9186          161.211       NO       
     PART-1-1.30005       0.00220169          9.66616          162.018       NO       
     PART-1-1.30145      0.000796606          11.1442          163.885       NO       
     PART-1-1.30151       0.00237673          16.1136          161.904       NO       
     PART-1-1.30153      0.000483252          12.0491          167.099       NO       
     PART-1-1.30156       0.00224855          9.68811          159.039       NO       
     PART-1-1.30161      0.000629447          11.9441          163.946       NO       
     PART-1-1.30182      0.000683097          13.2704          166.312       NO       
     PART-1-1.30185       0.00152512          9.37788          159.409       NO       
     PART-1-1.30186       0.00134275          13.7351          164.147       NO       
     PART-1-1.30367       0.00434913          13.8027          158.685       NO       
     PART-1-1.30378       0.00254176          10.0541          160.579       NO       
     PART-1-1.30387        0.0189632          12.3395          152.537       NO       
     PART-1-1.30392       0.00360746          13.2331          159.381       NO       
     PART-1-1.30394       0.00278318          9.83738          161.138       NO       
     PART-1-1.30396        0.0171054          21.5723          152.142       NO       
     PART-1-1.30405        0.0026346          15.3838          161.866       NO       
     PART-1-1.30416       0.00334143          9.79856          159.843       NO       
     PART-1-1.30418        0.0158151          20.6206          154.561       NO       
     PART-1-1.30430         0.005659          16.3443           153.88       NO       
     PART-1-1.30437        0.0117235          19.0883          155.528       NO       
     PART-1-1.30445        0.0027089          12.9542          160.913       NO       
     PART-1-1.30451        0.0120566          12.2151          152.135       NO       
     PART-1-1.30488       0.00334188          16.7518           161.35       NO       
     PART-1-1.30489        0.0144546          20.8582          153.312       NO       
     PART-1-1.30497       0.00372067          15.7364          156.087       NO       
     PART-1-1.30500        0.0192985          12.5937           153.61       NO       
     PART-1-1.30501        0.0184948          12.5843           151.86       NO       
     PART-1-1.30518       0.00939019          15.8666          154.267       NO       
     PART-1-1.30554       0.00239736           9.2219          161.191       NO       
     PART-1-1.30616       0.00431061          16.2373          160.917       NO       
     PART-1-1.30620       0.00411629          16.0647          155.487       NO       
     PART-1-1.30629       0.00364196          14.2652          156.989       NO       
     PART-1-1.30682        0.0184445          17.5195           152.88       NO       
     PART-1-1.30685        0.0015584          14.1413          160.316       NO       
     PART-1-1.30696       0.00326132          9.60861          161.971       NO       
     PART-1-1.30784        0.0073062          16.7877          152.403       NO       
     PART-1-1.30803       0.00349871          16.9978          161.097       NO       
     PART-1-1.30804       0.00359408          15.7378          156.241       NO       
     PART-1-1.30806       0.00280386           10.471          159.996       NO       
     PART-1-1.30807        0.0131759          20.3969          153.954       NO       
     PART-1-1.30808        0.0175639          12.5127          151.852       NO       
     PART-1-1.30810       0.00370445           13.451          159.581       NO       
     PART-1-1.30819      0.000786126          8.46707          164.434       NO       
     PART-1-1.30820        0.0191296          22.6438          151.133       NO       
     PART-1-1.30831      4.47126E-05          5.79808          169.329       NO       
     PART-1-1.30912        0.0166778          11.8649          152.729       NO       
     PART-1-1.30920        0.0129319           20.613          155.257       NO       
     PART-1-1.30947       0.00235981          9.96289          160.531       NO       
     PART-1-1.30952       0.00276651          14.5647          157.917       NO       
     PART-1-1.30955        0.0147628          11.5973          154.072       NO       
     PART-1-1.30959        0.0153972          21.0233          152.817       NO       
     PART-1-1.30970       0.00473456          14.2925          158.054       NO       
     PART-1-1.31105        0.0149721          12.8495          155.249       NO       
     PART-1-1.31107       0.00611951          17.4348          159.352       NO       
     PART-1-1.31109        0.0038507          11.3122          156.719       NO       
     PART-1-1.31115       0.00315435          17.3783          160.333       NO       
     PART-1-1.31116        0.0116291          19.8652          154.698       NO       
     PART-1-1.31122       0.00207675          14.6929          159.012       NO       
     PART-1-1.31128        0.0179363          21.4496          153.202       NO       
     PART-1-1.31141       0.00226086           14.425          158.773       NO       
     PART-1-1.31142       0.00296133          16.7643          161.718       NO       
     PART-1-1.31145       0.00391647          14.0335          158.954       NO       
     PART-1-1.31163       0.00239981          10.3098          160.026       NO       
     PART-1-1.31166        0.0109701           11.333          154.328       NO       
     PART-1-1.31227       0.00251199          12.6534           160.94       NO       
     PART-1-1.31228       0.00248961           15.618          161.814       NO       
     PART-1-1.31328       0.00880411          10.7004          157.698       NO       
     PART-1-1.31329        0.0126725          19.3844          154.944       NO       
     PART-1-1.31407       0.00209791          9.69475          159.344       NO       
     PART-1-1.31416       0.00214169          14.0746           159.17       NO       
     PART-1-1.31417       0.00805993          11.6532          158.094       NO       
     PART-1-1.31508       0.00481586          13.7567          158.154       NO       
     PART-1-1.31514       0.00400103          9.81068          159.572       NO       
     PART-1-1.31515       0.00311481           15.668          161.318       NO       
     PART-1-1.31528       0.00468465          16.5967          159.631       NO       
     PART-1-1.31531       0.00234782          10.7831          159.792       NO       
     PART-1-1.31535       0.00218568           12.665           161.63       NO       
     PART-1-1.31700        0.0151649          16.8128          153.899       NO       
     PART-1-1.31718        0.0176314          12.3095          154.212       NO       
     PART-1-1.31719        0.0167628          20.4183          153.945       NO       
     PART-1-1.31781        0.0191721          16.9067          153.532       NO       
     PART-1-1.31821      4.38331E-05          5.75903          169.898       NO       
     PART-1-1.31823      4.92454E-05          8.20368          172.033       NO       
     PART-1-1.31825      0.000211761          11.2043          168.534       NO       
     PART-1-1.31931       0.00943967           11.048          153.873       NO       
     PART-1-1.31959      0.000560045          12.8253          166.339       NO       
     PART-1-1.31960       4.7384E-05          8.64375          170.405       NO       
     PART-1-1.31961       0.00152091          9.59543          158.769       NO       
     PART-1-1.31963       0.00145202          14.5203           163.41       NO       
     PART-1-1.31964      0.000957888          13.1326          165.778       NO       
     PART-1-1.31994       0.00737352          11.0785          157.259       NO       
     PART-1-1.32066        0.0179196          20.5901           144.83       NO       
     PART-1-1.32070        0.0176474          22.7941          151.325       NO       
     PART-1-1.32071        0.0113179          16.2369          155.746       NO       
     PART-1-1.32081       0.00246167          16.3461          162.219       NO       
     PART-1-1.32231       0.00381362            13.82          159.047       NO       
     PART-1-1.32234       0.00290253          16.1822          161.228       NO       
     PART-1-1.32236        0.0161563          20.9553          153.854       NO       
     PART-1-1.32240        0.0188066          22.4246          152.855       NO       
     PART-1-1.32248        0.0165519          20.8873          153.637       NO       
     PART-1-1.32253        0.0140405          12.7264          155.367       NO       
     PART-1-1.32256        0.0193992          17.0245          153.271       NO       
     PART-1-1.32257       0.00254058          14.7454          158.164       NO       
     PART-1-1.32268         0.014342          11.9808          155.445       NO       
     PART-1-1.32380       0.00563855          16.4404          153.844       NO       
     PART-1-1.32392        0.0112758          19.3932          155.671       NO       
     PART-1-1.32394        0.0174349          12.3753          151.783       NO       
     PART-1-1.32495       0.00889393            16.23          154.202       NO       
     PART-1-1.32564       0.00148506          13.5639          160.764       NO       
     PART-1-1.32584         0.018493          17.6501          153.252       NO       
     PART-1-1.32630       0.00709498          10.0389           155.97       NO       
     PART-1-1.32639       0.00395385           11.393          156.012       NO       
[...]
     PART-1-1.81049        0.0153616          12.5569          152.159       NO       
     PART-1-1.81052       0.00809992          11.9283          156.647       NO       
     PART-1-1.81059        0.0150529           13.004          155.254       NO       
     PART-1-1.81167         0.015969          20.0762          145.866       NO       
     PART-1-1.81168        0.0186096           17.252          153.182       NO       
     PART-1-1.81169        0.0160998          13.5545          153.711       NO       
     PART-1-1.81182        0.0126435          16.0154           155.62       NO       
     PART-1-1.81335       0.00582658          9.91095          159.346       NO       
     PART-1-1.81354       0.00540655           10.981          156.421       NO       
     PART-1-1.81358      0.000182953          10.0816          167.571       NO       
     PART-1-1.81398      0.000150887          10.0045          169.755       NO       
     PART-1-1.81411       0.00187441          9.39008          161.518       NO       
     PART-1-1.81412      0.000875024          11.3183          163.863       NO       
     PART-1-1.81436       0.00251485          10.0813          159.529       NO       
     PART-1-1.81439       0.00224677           12.776          161.101       NO       
     PART-1-1.81441       0.00053298          8.07956          164.022       NO       
     PART-1-1.81443        0.0022081          15.7086          162.661       NO       
     PART-1-1.81444       0.00207979          15.7258          162.392       NO       
     PART-1-1.81445       0.00179653          10.0891           161.49       NO       
     PART-1-1.81447       0.00204461          15.4034          162.448       NO       
     PART-1-1.81453       0.00260322          14.9533          157.958       NO       
     PART-1-1.81528        0.0153514          25.7034          150.325       NO       
     PART-1-1.81598       0.00540567          16.2114          154.143       NO       
     PART-1-1.81617      0.000470212          11.8963          167.231       NO       
     PART-1-1.81694        0.0198737          17.1941          152.397       NO       
     PART-1-1.81795       0.00306437          10.5256          159.361       NO       
     PART-1-1.81799       0.00205419          9.62565          159.312       NO       
     PART-1-1.81800      0.000992214          11.4408          163.256       NO       
     PART-1-1.81801       0.00309777          16.7438          161.046       NO       
     PART-1-1.81836      0.000697319          8.80055          162.697       NO       
     PART-1-1.81837      0.000538509          12.1214          164.315       NO       
     PART-1-1.81839       0.00175116          9.57889          158.844       NO       
     PART-1-1.81840      0.000592341          12.8678          166.265       NO       
     PART-1-1.81841       0.00109059          8.98359          163.512       NO       
     PART-1-1.81876       0.00262423          10.2198          160.138       NO       
     PART-1-1.81878         0.015967          11.8818          153.301       NO       
     PART-1-1.81939       0.00151664          9.42375          159.637       NO       
     PART-1-1.81942       0.00187759          9.67553          161.059       NO       
     PART-1-1.81943      0.000440272          8.19265          164.917       NO       
     PART-1-1.81945       0.00352503           10.372          157.721       NO       
     PART-1-1.81949      0.000740391          10.9789          164.234       NO       
     PART-1-1.81952        0.0176716          12.8056          153.661       NO       
     PART-1-1.81981       0.00179072          9.81049          161.851       NO       
     PART-1-1.81984       0.00221866          15.4709          162.834       NO       
     PART-1-1.81986       0.00258638          9.99968          158.058       NO       
     PART-1-1.81993      0.000761426          8.68142          162.823       NO       
     PART-1-1.82063         0.019569          22.3233          151.337       NO       
     PART-1-1.82093      0.000733334          12.5023          163.292       NO       
     PART-1-1.82227      4.46479E-05          8.24922          170.666       NO       
     PART-1-1.82228      6.09902E-05          6.36097          168.805       NO       
     PART-1-1.82231      0.000218825          11.3255          168.221       NO       
     PART-1-1.82253        0.0195988          13.1817          153.246       NO       
     PART-1-1.82357       0.00331189          8.29743          167.697       NO       
     PART-1-1.82362        0.0177557          12.3643          157.867       NO       
     PART-1-1.82363       0.00205996          15.7685          162.262       NO       
     PART-1-1.82391       0.00191604          14.3304          159.439       NO       
     PART-1-1.82395       0.00333061          16.8805          160.488       NO       
     PART-1-1.82406        0.0043152          15.8557          155.366       NO       
     PART-1-1.82408       0.00307267          16.1869          161.887       NO       
     PART-1-1.82410        0.0186281          20.9177          153.759       NO       
     PART-1-1.82413        0.0197436          22.3943          151.078       NO       
     PART-1-1.82437       0.00301208          10.4407          158.866       NO       
     PART-1-1.82450       0.00262324          14.1431          158.358       NO       
     PART-1-1.82453       0.00634383          15.2044          156.563       NO       
     PART-1-1.82454        0.0189435          17.5684          152.989       NO       
     PART-1-1.82468      0.000468323          11.7772          164.772       NO       
     PART-1-1.82479       0.00359304          10.7718          158.364       NO       
     PART-1-1.82485       0.00796707          11.5176           158.28       NO       
     PART-1-1.82486        0.0116715          11.0126          154.584       NO       
     PART-1-1.82488        0.0106366          19.7958          156.263       NO       
     PART-1-1.82491       0.00356568          14.1923          159.093       NO       
     PART-1-1.82547        0.0033703          13.0418          160.305       NO       
     PART-1-1.82548       0.00496341          13.8238          158.053       NO       
     PART-1-1.82587        0.0073419          18.4303          158.431       NO       
     PART-1-1.82595       0.00357472          10.9868          157.944       NO       
     PART-1-1.82602        0.0141114          12.3813          151.417       NO       
     PART-1-1.82604       0.00318652          15.9799          156.652       NO       
     PART-1-1.82607       0.00556715           10.606          159.221       NO       
     PART-1-1.82612       0.00290119          16.6101          160.837       NO       
     PART-1-1.82771       2.2395E-18       0.00151178          179.995       NO       
     PART-1-1.82776        0.0118805          30.5678          149.778       NO       
     PART-1-1.82779      2.90096E-16       0.00100458          179.998       NO       
     PART-1-1.82833        0.0171149          16.6232          154.328       NO       
     PART-1-1.82848       0.00251587          10.1627          159.851       NO       
     PART-1-1.82850       0.00326435          15.9534          156.518       NO       
     PART-1-1.82852        0.0078752          19.1953          157.815       NO       
     PART-1-1.82854        0.0142828          12.7305          151.458       NO       
     PART-1-1.82946      0.000110801           9.2932          170.335       NO       
     PART-1-1.82947      9.64875E-05          6.68703          166.054       NO       
     PART-1-1.82949      0.000102798          8.40204          168.676       NO       
     PART-1-1.82986       0.00279327           13.096          160.728       NO       
     PART-1-1.83001       0.00747344          18.2088          157.385       NO       
     PART-1-1.83004       0.00608869          17.9047          159.178       NO       
     PART-1-1.83008       0.00551644          16.2075          154.081       NO       
     PART-1-1.83013       0.00340708          9.81989          159.703       NO       
     PART-1-1.83014        0.0026862          15.4723          161.789       NO       
     PART-1-1.83019       0.00193244          15.5937          162.501       NO       
     PART-1-1.83020      0.000926064          12.8166          165.495       NO       
     PART-1-1.83021       0.00233142           14.523          158.509       NO       
     PART-1-1.83032       0.00386334          13.4476          159.042       NO       
     PART-1-1.83088        0.0119786          19.2751          155.335       NO       
     PART-1-1.83089       0.00242994          15.1153          158.135       NO       
     PART-1-1.83090        0.0185528          20.9432          153.609       NO       
     PART-1-1.83094       0.00215932          10.3332          160.517       NO       
     PART-1-1.83212       0.00328008          14.5441          157.259       NO       
     PART-1-1.83216        0.0192823          21.6266          152.988       NO       
     PART-1-1.83281       0.00295715          10.5011          160.427       NO       
     PART-1-1.83284       0.00372902          16.8968          160.847       NO       
     PART-1-1.83293        0.0131114          21.3386          155.073       NO       
     PART-1-1.83297       0.00738084          17.3867          158.406       NO       
     PART-1-1.83301       0.00174052          11.5429           162.61       NO       
     PART-1-1.83303        0.0100408           12.094          155.535       NO       
     PART-1-1.83331        0.0183047          17.2882          153.494       NO       
     PART-1-1.83390       0.00258944          15.3139          157.844       NO       
     PART-1-1.83445       0.00721742          15.0598          155.598       NO       
     PART-1-1.83447        0.0034805          14.3195          157.121       NO       
     PART-1-1.83448       0.00242288          15.2019          163.215       NO       
     PART-1-1.83476        0.0106737          19.3714          155.086       NO       
     PART-1-1.83487       0.00498178          16.6276           160.41       NO       
     PART-1-1.83488       0.00413285          11.6121          156.283       NO       
     PART-1-1.83489       0.00374162          9.66366          161.569       NO       
     PART-1-1.83494        0.0092288          11.2089          153.266       NO       
     PART-1-1.83501       0.00269012           13.677          160.629       NO       
     PART-1-1.83563        0.0171024          12.3575          153.866       NO       
     PART-1-1.83606       0.00188992          15.2862          162.526       NO       
     PART-1-1.83607       0.00133877          13.9898          164.668       NO       
     PART-1-1.83678      0.000642045          12.2358          166.497       NO       
     PART-1-1.83692         0.016781          17.2754          153.349       NO       
     PART-1-1.83712      0.000774606          8.19845          163.695       NO       
     PART-1-1.83713        0.0013197          13.3179          161.088       NO       
     PART-1-1.83821        0.0178142          11.8679          153.288       NO       
     PART-1-1.83823       0.00356245          17.0232          161.182       NO       
     PART-1-1.83824       0.00326337          14.9895          157.045       NO       
     PART-1-1.83962       0.00164325          9.35791          159.656       NO       
     PART-1-1.83978      0.000174444          7.42836           165.96       NO       
     PART-1-1.83997        0.0118465          16.2468          155.555       NO       
     PART-1-1.84001       0.00253362          15.9036          162.328       NO       
     PART-1-1.84047       0.00308499          16.4554          160.739       NO       
     PART-1-1.84056        0.0165447          17.2544            153.5       NO       
     PART-1-1.84171       0.00339938          10.1256          158.658       NO       
     PART-1-1.84172       0.00334262          14.7958          157.061       NO       
     PART-1-1.84232        0.0161098          17.1128          153.948       NO       
     PART-1-1.84301       0.00040325          8.27537          165.008       NO       
     PART-1-1.84302      0.000498242          10.2428          165.526       NO       
     PART-1-1.84320       0.00113835          13.2899          161.595       NO       
     PART-1-1.84321       0.00292992          10.6628          159.943       NO       
     PART-1-1.84341       0.00152764          14.3336          163.533       NO       
     PART-1-1.84352         0.019982          22.1342          151.499       NO       
     PART-1-1.84355        0.0165328          19.7245          146.005       NO       
     PART-1-1.84369      0.000625861           8.5631          162.094       NO       
     PART-1-1.84372      0.000471987          12.3457          167.301       NO       
     PART-1-1.84491       0.00306238          15.8858           161.22       NO       
     PART-1-1.84493        0.0059972          16.4738          153.544       NO       
     PART-1-1.84507       0.00220706            9.666          161.118       NO       
     PART-1-1.84515      0.000470033          11.6653           164.82       NO       
     PART-1-1.84543      0.000177655          7.00178          167.564       NO       
     PART-1-1.84544      0.000206749          10.2606          169.482       NO       
     PART-1-1.84581        0.0191805          13.7332           152.53       NO       
     PART-1-1.84627      0.000653649          13.2055           165.75       NO       
     PART-1-1.84990        0.0153887          26.6183          150.378       NO       
     PART-1-1.85322         0.016033          24.9947          149.184       NO       
     PART-1-1.85684        0.0131575          25.8133          151.762       NO       
     PART-1-1.85685        0.0127742          24.3404          152.052       NO       
     PART-1-1.85795       0.00866702          23.5114          154.611       NO       
     PART-1-1.86199         0.013884          24.7206          151.621       NO       
     PART-1-1.86212        0.0170857          27.1433          149.711       NO       
     PART-1-1.86247       0.00927984          23.3573          153.838       NO       
     PART-1-1.86306        0.0145573          26.0697          150.812       NO       
     PART-1-1.86477        0.0145899          26.2569          151.521       NO       
     PART-1-1.86723        0.0184141          25.6122          148.192       NO       
     PART-1-1.86957        0.0139623          24.5553          151.331       NO       
     PART-1-1.87475       0.00634812          5.81226           163.29       NO       
     PART-1-1.88148        0.0064586           27.485          133.681       NO       
     PART-1-1.88210        0.0166346          26.3164           151.91       NO       
     PART-1-1.88332        0.0124122           25.413          151.799       NO       
  
  
 --------------------------------------------------------------------------------
 Elements with small volume
  
      Element       Adjusted nodes 
 ------------------ -------------- 
     PART-1-1.12852       NO       
     PART-1-1.12855       NO       
     PART-1-1.12861       NO       
     PART-1-1.12876       NO       
     PART-1-1.12897       NO       
     PART-1-1.12937       NO       
     PART-1-1.13335       NO       
     PART-1-1.13353       NO       
     PART-1-1.13360       NO       
     PART-1-1.13374       NO       
     PART-1-1.13375       NO       
     PART-1-1.13378       NO       
     PART-1-1.13406       NO       
     PART-1-1.13477       NO       
     PART-1-1.13505       NO       
     PART-1-1.13546       NO       
     PART-1-1.13678       NO       
     PART-1-1.13929       NO       
     PART-1-1.13947       NO       
     PART-1-1.14133       NO       
     PART-1-1.14214       NO       
     PART-1-1.14294       NO       
     PART-1-1.14703       NO       
     PART-1-1.14705       NO       
     PART-1-1.14942       NO       
     PART-1-1.15372       NO       
     PART-1-1.15627       NO       
     PART-1-1.15646       NO       
     PART-1-1.15658       NO       
     PART-1-1.15665       NO       
     PART-1-1.15727       NO       
     PART-1-1.15837       NO       
     PART-1-1.71586       NO       
     PART-1-1.79020       NO       
     PART-1-1.82778       NO       
  
  *Step, name=Step-1, nlgeom=NO, perturbation
  *output, field, variable=PRESELECT
  *Step, name=Step-1, nlgeom=NO, perturbation

 ***ERROR: NODE SET ASSEMBLY_BOTTOM_SET_PIN HAS NOT BEEN DEFINED

 ***ERROR: NODE SET ASSEMBLY_BOTTOM_SET_PIN HAS NOT BEEN DEFINED

 ***ERROR: NODE SET ASSEMBLY_TOP_SET_PIN HAS NOT BEEN DEFINED

 ***ERROR: NODE SET ASSEMBLY_TOP_SET_PIN HAS NOT BEEN DEFINED

 ***ERROR: NODE SET ASSEMBLY_TOP_SET_PIN HAS NOT BEEN DEFINED

 ***ERROR: NODE SET ASSEMBLY_TOP_SET_PIN HAS NOT BEEN DEFINED
  *Step, name=Step-1, nlgeom=NO, perturbation
  *buckle
  *boundary, op=NEW, loadcase=1
  *boundary, op=NEW, loadcase=2
  *boundary, op=NEW, loadcase=1
  *boundary, op=NEW, loadcase=2
  *dsload

 ***ERROR: THE SURFACE ASSEMBLY_TOP_SURFACE HAS NOT BEEN LOCATED
 LINE IMAGE: ASSEMBLY_TOP_SURFACE, P, 1.
  *output, field, variable=PRESELECT
  *endstep
  *Step, name=Step-1, nlgeom=NO, perturbation
  *buckle
  *buckle
  *boundary, op=NEW, loadcase=1

 ***ERROR: A BOUNDARY CONDITION HAS BEEN SPECIFIED ON NODE SET 
           ASSEMBLY_BOTTOM_SET_PIN BUT THIS NODE SET IS NOT ACTIVE IN THE MODEL
  *boundary, op=NEW, loadcase=2

 ***ERROR: A BOUNDARY CONDITION HAS BEEN SPECIFIED ON NODE SET 
           ASSEMBLY_BOTTOM_SET_PIN BUT THIS NODE SET IS NOT ACTIVE IN THE MODEL
  *boundary, op=NEW, loadcase=1

 ***ERROR: A BOUNDARY CONDITION HAS BEEN SPECIFIED ON NODE SET 
           ASSEMBLY_TOP_SET_PIN BUT THIS NODE SET IS NOT ACTIVE IN THE MODEL

 ***ERROR: A BOUNDARY CONDITION HAS BEEN SPECIFIED ON NODE SET 
           ASSEMBLY_TOP_SET_PIN BUT THIS NODE SET IS NOT ACTIVE IN THE MODEL
  *boundary, op=NEW, loadcase=2

 ***ERROR: A BOUNDARY CONDITION HAS BEEN SPECIFIED ON NODE SET 
           ASSEMBLY_TOP_SET_PIN BUT THIS NODE SET IS NOT ACTIVE IN THE MODEL

 ***ERROR: A BOUNDARY CONDITION HAS BEEN SPECIFIED ON NODE SET 
           ASSEMBLY_TOP_SET_PIN BUT THIS NODE SET IS NOT ACTIVE IN THE MODEL
  *endstep

 ***ERROR: NODE SET ASSEMBLY_BOTTOM_SET_PIN HAS NOT BEEN DEFINED

 ***ERROR: NODE SET ASSEMBLY_BOTTOM_SET_PIN HAS NOT BEEN DEFINED

 ***ERROR: NODE SET ASSEMBLY_TOP_SET_PIN HAS NOT BEEN DEFINED

 ***ERROR: NODE SET ASSEMBLY_TOP_SET_PIN HAS NOT BEEN DEFINED

 ***ERROR: NODE SET ASSEMBLY_TOP_SET_PIN HAS NOT BEEN DEFINED

 ***ERROR: NODE SET ASSEMBLY_TOP_SET_PIN HAS NOT BEEN DEFINED



                            P R O B L E M   S I Z E


          NUMBER OF ELEMENTS IS                                 88707
          NUMBER OF ELEMENTS DEFINED BY THE USER AND *TIE       88705
          NUMBER OF NODES IS                                    39658
          NUMBER OF NODES DEFINED BY THE USER                   39658
          TOTAL NUMBER OF VARIABLES IN THE MODEL               118980
          (DEGREES OF FREEDOM PLUS MAX NO. OF ANY LAGRANGE MULTIPLIER
           VARIABLES. INCLUDE *PRINT,SOLVE=YES TO GET THE ACTUAL NUMBER.)





          THE PROGRAM HAS DISCOVERED    41 FATAL ERRORS

               ** EXECUTION IS TERMINATED **

 ***ERROR: Failed to locate set "ASSEMBLY_TOP_SET_PIN".



                              END OF USER INPUT PROCESSING



     JOB TIME SUMMARY
       USER TIME (SEC)      =   3.5000    
       SYSTEM TIME (SEC)    =   1.0000    
       TOTAL CPU TIME (SEC) =   4.5000    
       WALLCLOCK TIME (SEC) =          5
