*Heading
** Job name: Buckling_job_9_2 Model name: Model-1
** Generated by: Abaqus/CAE 2019
*Preprint, echo=NO, model=NO, history=NO, contact=NO
**
** PARTS
**
*Part, name=Part-1
*Node
      1,   75.1081238,        1524.,     126.4478
      2,       -1524.,   778.323608,     126.4478
      3,   75.4762268,        1524.,   127.239532
      4,   74.6361389,        1524.,   127.742645
      5,   73.6532745,        1524.,   127.899803
      6,   72.5230026,        1524.,   127.824554
      7,   71.6512604,        1524.,   127.517784
      8,    71.342804,        1524.,   126.760468
      9,   72.2631531,        1524.,   126.234795
     10,   73.3323975,        1524.,    126.09491
     11,       -1524.,   778.887878,   126.118164
     12,       -1524.,     779.5401,   126.180054
     13,       -1524.,   780.022278,   126.618996
     14,       -1524.,    780.07135,   127.264786
     15,       -1524.,   779.653015,   127.763618
     16,       -1524.,   779.012634,   127.900848
     17,       -1524.,    778.41156,   127.642662
     18,       -1524.,   778.118835,   127.063072
     19,  -1520.87415,   779.670532,   127.388336
     20,  -1518.50635,    780.71344,   126.761536
** ... 20898 like lines cut
*Element, type=C3D4
    1, 3897, 5655, 1744, 3898
    2, 3943,  817, 3941, 5656
    3, 2584,   56, 5172, 5173
    4, 5656, 2044, 3944, 3943
    5, 5389, 1892, 2616, 5657
    6, 5657, 5388, 5389, 1892
    7, 4859, 4858, 4860, 1837
    8, 5657, 5389, 5390, 2616
    9, 5657,  994,   22, 5391
   10, 5657, 5387,  994, 5391
   11, 5658, 1352, 3174,  725
   12, 5659, 1818, 4689, 4690
   13, 5660, 4956, 4951, 4954
   14,  941, 1848, 4944, 5660
   15, 5660, 1848, 4944, 4951
   16, 4951, 5660,   86, 4944
   17, 5660, 4956, 1848, 4951
   18, 5661, 4807, 4806, 4804
   19, 5662, 4110, 4108, 4106
   20, 5662,  205,  839, 1155
** ... 49625 like lines cut
*Nset, nset=fibre_set1, generate
    1,  5871,     1
*Elset, elset=fibre_set1, generate
     1,  13555,      1
*Nset, nset=fibre_set2, generate
  5872,  20918,      1
*Elset, elset=fibre_set2, generate
 13556,  49645,      1
** Section: fibre_section
*Solid Section, elset=fibre_set1, material=fibre_material
,
** Section: fibre_section
*Solid Section, elset=fibre_set2, material=fibre_material
,
*End Part
**  
**
** ASSEMBLY
**
*Assembly, name=Assembly
**  
*Instance, name=Part-1-1, part=Part-1
*End Instance
**  
*Node
      1,           0.,        1524.,         127.
*Node
      2,           0.,       -1524.,         127.
*Nset, nset=_PickedSet19, internal
 1,
*Nset, nset=_PickedSet21, internal
 2,
** Constraint: Constraint-1
*Rigid Body, ref node=_PickedSet19, pin nset=top_set_pin
** Constraint: Constraint-2
*Rigid Body, ref node=_PickedSet21, pin nset=bottom_set_pin
*End Assembly
** 
** MATERIALS
** 
*Material, name=fibre_material
*Elastic
121000., 0.34
*Material, name=matrix_material
*Elastic
 838.038, 0.29
** ----------------------------------------------------------------
** 
** STEP: Step-1
** 
*Step, name=Step-1, nlgeom=NO, perturbation
*Buckle
3, , 6, 300
** 
** BOUNDARY CONDITIONS
** 
** Name: BC-1 Type: Symmetry/Antisymmetry/Encastre
*Boundary, op=NEW, load case=1
bottom_set_pin, ENCASTRE
*Boundary, op=NEW, load case=2
bottom_set_pin, ENCASTRE
** Name: BC-2 Type: Displacement/Rotation
*Boundary, op=NEW, load case=1
top_set_pin, 1, 1
top_set_pin, 3, 3
*Boundary, op=NEW, load case=2
top_set_pin, 1, 1
top_set_pin, 3, 3
** 
** LOADS
** 
** Name: Load-1   Type: Pressure
*Dsload
top_surface, P, 1.
** 
** OUTPUT REQUESTS
** 
*Restart, write, frequency=0
** 
** FIELD OUTPUT: F-Output-1
** 
*Output, field, variable=PRESELECT
*End Step
