1

   Abaqus 3DEXPERIENCE R2019x                                  Date 01-May-2020   Time 18:51:48
   For use by TEXAS A_M UNIVERSITY SYSTEM under license from Dassault Systemes or its subsidiary.



                         The Abaqus Software is a product of:

                           Dassault Systemes SIMULIA Corp.
                           1301 Atwood Avenue, Suite 101W
                              Johnston, RI 02919, USA
 


                   The Abaqus Software is available only under license
                   from Dassault Systemes or its subsidiary and may be
                   used or reproduced only in accordance with the terms
                   of such license.
 
                          On machine AERO-MJ09CBE4 
                          you are authorized to run
                          Abaqus/Standard until 11-Jul-2021

                          Your site id is: 200000000002185 


 
                    For assistance or any other information you may
                    obtain contact information for your local office
                    from the world wide web at:

                      http://www.3ds.com/products/simulia/locations/

 
                * * * * * * * * * * * * * * * * * * * * * * * * * * * * * * 
                *                                                         * 
                *                   *****************                     * 
                *                   *  N O T I C E  *                     * 
                *                   *****************                     * 
                *                                                         * 
                *                                                         * 
                *               Abaqus 3DEXPERIENCE R2019x                * 
                *                                                         * 
                *          BUILD ID: 2018_09_24-13.41.51 157541           * 
                *                                                         * 
                *                                                         * 
                *  Please make sure you are using                         * 
                *  release 3DEXPERIENCE R2019x manuals                    * 
                *  plus the notes accompanying this release.              * 
                *                                                         * 
                *                                                         * 
                *                                                         * 
                *                                                         * 
                *                                                         * 
                *   This program may not be used for commercial purposes  * 
                *           without payment of a commercial fee.          * 
                *                                                         * 
                * * * * * * * * * * * * * * * * * * * * * * * * * * * * * * 


 



     PROCESSING PART, INSTANCE, AND ASSEMBLY INFORMATION
   *******************************************************


 ***ERROR: in keyword *RIGIDBODY, file "Buckling_job_7.inp", line 109879: 
           Unknown assembly set TOP_SET_PIN
 ***NOTE: DUE TO AN INPUT ERROR THE ANALYSIS PRE-PROCESSOR HAS BEEN UNABLE TO 
          INTERPRET SOME DATA.  SUBSEQUENT ERRORS MAY BE CAUSED BY THIS OMISSION

 ***ERROR: in keyword *RIGIDBODY, file "Buckling_job_7.inp", line 109881: 
           Unknown assembly set BOTTOM_SET_PIN

 ***ERROR: in keyword *BOUNDARY, file "Buckling_job_7.inp", line 109903: 
           Unknown assembly node set BOTTOM_SET_PIN

 ***ERROR: in keyword *BOUNDARY, file "Buckling_job_7.inp", line 109905: 
           Unknown assembly node set BOTTOM_SET_PIN

 ***ERROR: in keyword *BOUNDARY, file "Buckling_job_7.inp", line 109908: 
           Unknown assembly node set TOP_SET_PIN

 ***ERROR: in keyword *BOUNDARY, file "Buckling_job_7.inp", line 109908: 
           Unknown assembly node set TOP_SET_PIN

 ***ERROR: in keyword *BOUNDARY, file "Buckling_job_7.inp", line 109911: 
           Unknown assembly node set TOP_SET_PIN

 ***ERROR: in keyword *BOUNDARY, file "Buckling_job_7.inp", line 109911: 
           Unknown assembly node set TOP_SET_PIN

     END PROCESSING PART, INSTANCE, AND ASSEMBLY INFORMATION
   ***********************************************************




     OPTIONS BEING PROCESSED
   ***************************


  *Heading
  *Node
  *Element, type=C3D4
  *Nset, nset=ASSEMBLY_PART-1-1_FIBRE_SET2
  *Nset, nset=ASSEMBLY_PART-1-1_FIBRE_SET3
  *Nset, nset=ASSEMBLY_PART-1-1_FIBRE_SET4
  *Elset, elset=ASSEMBLY_PART-1-1_FIBRE_SET2
  *Elset, elset=ASSEMBLY_PART-1-1_FIBRE_SET3
  *Elset, elset=ASSEMBLY_PART-1-1_FIBRE_SET4
  *Node
  *Nset, nset=ASSEMBLY__PICKEDSET19
  *Nset, nset=ASSEMBLY__PICKEDSET21

 ***WARNING: BUCKLE OPTION IS NOT SUPPORTED FOR ELEMENT LOOP PARALLELIZATION. 
             IF YOU HAVE SPECIFIED ELEMENT LOOP PARALLELIZATION, IT WILL BE 
             TURNED OFF FOR THIS ANALYSIS.
 LINE IMAGE: *buckle
  *material, name=FIBRE_MATERIAL
  *elastic
  *material, name=MATRIX_MATERIAL
  *elastic
  *solidsection, elset=ASSEMBLY_PART-1-1_FIBRE_SET2, material=FIBRE_MATERIAL
  *solidsection, elset=ASSEMBLY_PART-1-1_FIBRE_SET3, material=FIBRE_MATERIAL
  *solidsection, elset=ASSEMBLY_PART-1-1_FIBRE_SET4, material=FIBRE_MATERIAL
  *solidsection, elset=ASSEMBLY_PART-1-1_FIBRE_SET2, material=FIBRE_MATERIAL
  *solidsection, elset=ASSEMBLY_PART-1-1_FIBRE_SET3, material=FIBRE_MATERIAL
  *solidsection, elset=ASSEMBLY_PART-1-1_FIBRE_SET4, material=FIBRE_MATERIAL
  *rigidbody, refnode=ASSEMBLY__PICKEDSET19, pinnset=ASSEMBLY_TOP_SET_PIN
  *rigidbody, refnode=ASSEMBLY__PICKEDSET21, pinnset=ASSEMBLY_BOTTOM_SET_PIN
  *rigidbody, refnode=ASSEMBLY__PICKEDSET19, pinnset=ASSEMBLY_TOP_SET_PIN
  *rigidbody, refnode=ASSEMBLY__PICKEDSET21, pinnset=ASSEMBLY_BOTTOM_SET_PIN
  *rigidbody, refnode=ASSEMBLY__PICKEDSET19, pinnset=ASSEMBLY_TOP_SET_PIN
  *rigidbody, refnode=ASSEMBLY__PICKEDSET21, pinnset=ASSEMBLY_BOTTOM_SET_PIN
  *rigidbody, refnode=ASSEMBLY__PICKEDSET19, pinnset=ASSEMBLY_TOP_SET_PIN

 ***ERROR: NODE SET ASSEMBLY_TOP_SET_PIN HAS NOT BEEN DEFINED
  *rigidbody, refnode=ASSEMBLY__PICKEDSET21, pinnset=ASSEMBLY_BOTTOM_SET_PIN

 ***ERROR: NODE SET ASSEMBLY_BOTTOM_SET_PIN HAS NOT BEEN DEFINED
  *rigidbody, refnode=ASSEMBLY__PICKEDSET19, pinnset=ASSEMBLY_TOP_SET_PIN

 ***ERROR: NODE SET ASSEMBLY_TOP_SET_PIN HAS NOT BEEN DEFINED

 ***ERROR: UNABLE TO LOCATE NODE SET ASSEMBLY_TOP_SET_PIN. THE NODE SET MUST 
           HAVE BEEN PREVIOUSLY DEFINED. NODES IN THIS NODE SET WILL NOT BE 
           PART OF RIGID BODY
 LINE IMAGE: *rigidbody, refnode=ASSEMBLY__PICKEDSET19, 
             pinnset=ASSEMBLY_TOP_SET_PIN
  *rigidbody, refnode=ASSEMBLY__PICKEDSET21, pinnset=ASSEMBLY_BOTTOM_SET_PIN

 ***ERROR: NODE SET ASSEMBLY_BOTTOM_SET_PIN HAS NOT BEEN DEFINED

 ***ERROR: UNABLE TO LOCATE NODE SET ASSEMBLY_BOTTOM_SET_PIN. THE NODE SET MUST 
           HAVE BEEN PREVIOUSLY DEFINED. NODES IN THIS NODE SET WILL NOT BE 
           PART OF RIGID BODY
 LINE IMAGE: *rigidbody, refnode=ASSEMBLY__PICKEDSET21, 
             pinnset=ASSEMBLY_BOTTOM_SET_PIN

 ***ERROR: SURFACE DEFINITION ASSEMBLY_TOP_SURFACE NOT FOUND.
  *rigidbody, refnode=ASSEMBLY__PICKEDSET19, pinnset=ASSEMBLY_TOP_SET_PIN
  *rigidbody, refnode=ASSEMBLY__PICKEDSET21, pinnset=ASSEMBLY_BOTTOM_SET_PIN
  *rigidbody, refnode=ASSEMBLY__PICKEDSET19, pinnset=ASSEMBLY_TOP_SET_PIN

 ***ERROR: NODE SET ASSEMBLY_TOP_SET_PIN HAS NOT BEEN DEFINED

 ***ERROR: UNABLE TO LOCATE NODE SET ASSEMBLY_TOP_SET_PIN. THE NODE SET MUST 
           HAVE BEEN PREVIOUSLY DEFINED. NODES IN THIS NODE SET WILL NOT BE 
           PART OF RIGID BODY
 LINE IMAGE: *rigidbody, refnode=ASSEMBLY__PICKEDSET19, 
             pinnset=ASSEMBLY_TOP_SET_PIN
  *rigidbody, refnode=ASSEMBLY__PICKEDSET21, pinnset=ASSEMBLY_BOTTOM_SET_PIN

 ***ERROR: NODE SET ASSEMBLY_BOTTOM_SET_PIN HAS NOT BEEN DEFINED

 ***ERROR: UNABLE TO LOCATE NODE SET ASSEMBLY_BOTTOM_SET_PIN. THE NODE SET MUST 
           HAVE BEEN PREVIOUSLY DEFINED. NODES IN THIS NODE SET WILL NOT BE 
           PART OF RIGID BODY
 LINE IMAGE: *rigidbody, refnode=ASSEMBLY__PICKEDSET21, 
             pinnset=ASSEMBLY_BOTTOM_SET_PIN
  *boundary, op=NEW, loadcase=1
  *boundary, op=NEW, loadcase=2
  *boundary, op=NEW, loadcase=1
  *boundary, op=NEW, loadcase=2
  *boundary, op=NEW, loadcase=1
  *boundary, op=NEW, loadcase=2
  *boundary, op=NEW, loadcase=1
  *boundary, op=NEW, loadcase=2
  *rigidbody, refnode=ASSEMBLY__PICKEDSET19, pinnset=ASSEMBLY_TOP_SET_PIN
  *rigidbody, refnode=ASSEMBLY__PICKEDSET21, pinnset=ASSEMBLY_BOTTOM_SET_PIN
  *output, field, variable=PRESELECT
  *output, field, variable=PRESELECT
  *output, field, variable=PRESELECT

 ***ERROR: NODE SET ASSEMBLY_TOP_SET_PIN HAS NOT BEEN DEFINED

 ***ERROR: NODE SET ASSEMBLY_BOTTOM_SET_PIN HAS NOT BEEN DEFINED
  
                               E L E M E N T   Q U A L I T Y  C H E C K S        
  
  
 ***NOTES: DISTORTED ISOPARAMETRIC ELEMENTS: ANGLE BETWEEN ISOPARAMETRIC LINES 
           IS LESS THAN 45 DEGREES OR GREATER THAN 135 DEGREES.
  
           TETRAHEDRAL QUALITY MEASURE: VOLUME OF TETRAHEDRON DIVIDED BY THE 
           VOLUME OF EQUILATERAL TETRAHEDRON WITH SAME CIRCUMSPHERE RADIUS; 
           0 FOR DEGENERATE TETRAHEDRON AND 1 FOR EQUILATERIAL TETRAHEDRON. IT 
           IS RECOMMENDED THAT THE TETRAHEDRAL QUALITY MEASURE BE GREATER THAN 
           0.02, THE MIN INTERIOR (DIHEDRAL) ANGLE BE GREATER THAN 10 DEGREES, 
           AND THE MAX INTERIOR (DIHEDRAL) ANGLE BE LESS THAN 160 DEGREES. 
  
           MODIFIED TETRAHEDRAL QUALITY MEASURE: ANGLES BETWEEN THE TWO LINE 
           SEGMENTS ON EACH EDGE; THE EDGES OF MODIFIED TETRAHEDRAL SHOULD BE 
           AS STRAIGHT AS POSSIBLE. IT IS RECOMMENDED THAT THE ANGLE BETWEEN 
           THE TWO LINE SEGMENTS ON EACH EDGE IS BETWEEN 160 AND 180 DEGREES. 
  
           TRIANGULAR QUALITY MEASURE: AREA OF TRIANGLE DIVIDED BY THE AREA OF 
           EQUILATERAL TRIANGLE WITH SAME CIRCUMCIRCLE RADIUS; 0 FOR DEGENERATE 
           TRIANGLE AND 1 FOR EQUILATERAL TRIANGLE. IT IS RECOMMENDED THAT THE
           TRIANGULAR QUALITY MEASURE BE GREATER THAN 0.01, THE MIN INTERIOR 
           ANGLE BE GREATER THAN 10 DEGREES, AND THE MAX INTERIOR ANGLE BE LESS 
           THAN 160 DEGREES. 
  
           NODAL ADJUSTMENTS ARISING FROM CONTACT INTERACTIONS AND/OR TIE 
           CONSTRAINTS CAN CAUSE SEVERE ELEMENT DISTORTION. IT MAY BE NECESSARY 
           TO REMESH IN ORDER TO REDUCE THE AMOUNT OF ADJUSTMENT. 

 ***WARNING: 3818 elements are distorted. Either the isoparametric angles are 
             out of the suggested limits or the triangular or tetrahedral 
             quality measure is bad. The elements have been identified in 
             element set WarnElemDistorted.

 ***ERROR: The volume of 35 elements is zero, small, or negative. Check 
           coordinates or node numbering, or modify the mesh seed. In the case 
           of a tetrahedron this error may indicate that all nodes are located 
           very nearly in a plane. The elements have been identified in element 
           set ErrElemVolSmallNegZero.
  
 --------------------------------------------------------------------------------
 Distorted tetrahedral elements
  
      Element       Quality measure     Min angle        Max angle     Adjusted nodes 
 ------------------ ---------------- ---------------- ---------------- -------------- 
         PART-1-1.6      1.57627E-21      0.000165889             180.       NO       
        PART-1-1.10       1.6144E-21      0.000165885             180.       NO       
       PART-1-1.127       0.00125929          14.0115          164.408       NO       
       PART-1-1.144        0.0169437          13.3836           154.23       NO       
       PART-1-1.145        0.0169975          21.3964          153.698       NO       
       PART-1-1.195      1.99983E-18       0.00126181          179.998       NO       
       PART-1-1.203       0.00293798          16.4244           161.97       NO       
       PART-1-1.209       0.00335878          16.6538          161.233       NO       
       PART-1-1.264        0.0156629          22.0261          154.054       NO       
       PART-1-1.265       0.00265888          15.5442          161.585       NO       
       PART-1-1.316       8.6025E-16       0.00449862          179.994       NO       
       PART-1-1.321        0.0192384          16.8806            153.1       NO       
       PART-1-1.367       2.2021E-21      0.000229865             180.       NO       
       PART-1-1.372      3.76082E-19      0.000830817          179.999       NO       
       PART-1-1.374        0.0112997          11.5358          153.543       NO       
       PART-1-1.376       0.00252006          15.5875          161.945       NO       
       PART-1-1.393       0.00966143          11.7903          157.309       NO       
       PART-1-1.404      6.32142E-16       0.00416688          179.994       NO       
       PART-1-1.423       0.00385844          13.8861          159.112       NO       
       PART-1-1.458       0.00256463          15.8208          162.884       NO       
       PART-1-1.459        0.0151904          10.3358          157.174       NO       
       PART-1-1.460       0.00216959          12.9528          159.681       NO       
       PART-1-1.461       0.00204781           9.1756          161.112       NO       
       PART-1-1.476      7.51407E-20      0.000435373          179.999       NO       
       PART-1-1.483      8.59471E-16       0.00449862          179.994       NO       
       PART-1-1.502      1.58566E-21      0.000165887             180.       NO       
       PART-1-1.510      3.62159E-25      2.07381E-05             180.       NO       
       PART-1-1.513        8.012E-33      -1.7053E-13             180.       NO       
       PART-1-1.514      3.80128E-25      2.07029E-05             180.       NO       
       PART-1-1.515      7.52968E-20      0.000435377          179.999       NO       
       PART-1-1.526      1.08965E-24      2.69582E-05             180.       NO       
       PART-1-1.534      2.89737E-21      0.000192839             180.       NO       
       PART-1-1.539      1.83696E-21      0.000172103             180.       NO       
       PART-1-1.551      9.33479E-22      0.000145152             180.       NO       
       PART-1-1.554      5.47213E-17       0.00225971          179.997       NO       
       PART-1-1.559               0.      -1.7053E-13             180.       NO       
       PART-1-1.564      4.63001E-17       0.00216727          179.997       NO       
       PART-1-1.673       0.00878776          11.6422          157.286       NO       
       PART-1-1.871      6.26151E-20      0.000414637          179.999       NO       
       PART-1-1.902      7.54848E-20      0.000435373          179.999       NO       
       PART-1-1.911      1.55675E-21      0.000165883             180.       NO       
       PART-1-1.967      2.39942E-22      0.000103592             180.       NO       
      PART-1-1.1048      7.51407E-20      0.000435374          179.999       NO       
      PART-1-1.1188      1.59463E-21      0.000165889             180.       NO       
      PART-1-1.1234        0.0180883           18.066          153.303       NO       
      PART-1-1.1294       0.00348541          10.5951           158.44       NO       
      PART-1-1.1413       0.00200493          11.7897           162.13       NO       
      PART-1-1.1414       0.00580223          17.2398          153.246       NO       
      PART-1-1.1416       0.00874035          17.8733          157.669       NO       
      PART-1-1.1420        0.0033438           10.243          159.678       NO       
      PART-1-1.1428        0.0119302          12.3829           154.89       NO       
      PART-1-1.1429        0.0118326          18.5649          156.287       NO       
      PART-1-1.1431       0.00267799          10.4124          160.627       NO       
      PART-1-1.1432       0.00474373          16.8356          154.408       NO       
      PART-1-1.1435        0.0169584          12.3115          153.402       NO       
      PART-1-1.1436       0.00254011          12.1813          161.435       NO       
      PART-1-1.1659      9.57684E-22      0.000145152             180.       NO       
      PART-1-1.1759        0.0188091          13.7392          152.553       NO       
      PART-1-1.1786      9.19223E-22      0.000145149             180.       NO       
      PART-1-1.1819       0.00241712          14.8499          158.321       NO       
      PART-1-1.1840      8.58356E-16       0.00449862          179.994       NO       
      PART-1-1.1957      9.19242E-22      0.000145154             180.       NO       
      PART-1-1.1993      1.57628E-21      0.000165885             180.       NO       
      PART-1-1.1998       0.00398225          15.2699          156.061       NO       
      PART-1-1.2059        0.0184604          16.9986           152.98       NO       
      PART-1-1.2095      1.28193E-31      -1.7053E-13             180.       NO       
      PART-1-1.2125      1.61449E-21      0.000165887             180.       NO       
      PART-1-1.2152      1.57628E-21      0.000165887             180.       NO       
      PART-1-1.2235        0.0135186          11.0657          155.016       NO       
      PART-1-1.2237         0.010134          20.0112          156.675       NO       
      PART-1-1.2239       0.00772977          11.3559          157.155       NO       
      PART-1-1.2240       0.00340442          10.6243          158.992       NO       
      PART-1-1.2244       0.00751491          17.4396          158.045       NO       
      PART-1-1.2249       0.00273278          15.9663          161.266       NO       
      PART-1-1.2250       0.00461229          16.9432          154.503       NO       
      PART-1-1.2261       0.00258813           10.015          161.128       NO       
      PART-1-1.2262       0.00535994          16.7219          153.896       NO       
      PART-1-1.2294      1.61446E-21      0.000165885             180.       NO       
      PART-1-1.2335      1.08336E-15       0.00476812          179.994       NO       
      PART-1-1.2389         0.019065           13.572          153.145       NO       
      PART-1-1.2394        0.0149956          20.3298          154.829       NO       
      PART-1-1.2395       0.00270157          15.5037          161.719       NO       
      PART-1-1.2397       0.00341607          13.1109          159.673       NO       
      PART-1-1.2405       0.00342291            9.915           159.68       NO       
      PART-1-1.2407        0.0103553          11.1893          156.531       NO       
      PART-1-1.2409       0.00327248          17.0769          161.136       NO       
      PART-1-1.2411        0.0027231          12.9017          160.892       NO       
      PART-1-1.2414       0.00292468          15.6746          157.133       NO       
      PART-1-1.2415        0.0128308          12.3296          151.999       NO       
      PART-1-1.2416       0.00264854          10.7174          159.805       NO       
      PART-1-1.2477         0.016922          17.3144          153.813       NO       
      PART-1-1.2499      9.31889E-22      0.000145152             180.       NO       
      PART-1-1.2640      9.57283E-22      0.000145154             180.       NO       
      PART-1-1.2679      3.98689E-25      2.07205E-05             180.       NO       
      PART-1-1.2846       0.00320802          12.7403            160.6       NO       
      PART-1-1.2848        0.0155191             19.4          154.776       NO       
      PART-1-1.2849        0.0146859          20.9498          153.338       NO       
      PART-1-1.2856      6.45213E-16       0.00418761          179.994       NO       
      PART-1-1.2858        0.0016588          9.23368          161.915       NO       
      PART-1-1.2859      0.000579737          8.72674          163.877       NO       
      PART-1-1.2868       0.00307333          16.8042          161.586       NO       
      PART-1-1.2916        0.0178291          13.4089           149.89       NO       
      PART-1-1.2917       0.00413332           16.769           155.08       NO       
      PART-1-1.2918       0.00293796          10.4399          159.494       NO       
      PART-1-1.2936       0.00367394          12.7251          159.977       NO       
      PART-1-1.3109        0.0196926            17.78          153.036       NO       
      PART-1-1.3549        0.0149169          21.2676          152.933       NO       
      PART-1-1.3551       0.00460049           10.155          161.214       NO       
      PART-1-1.3624        0.0158641          17.1107          154.294       NO       
      PART-1-1.3673        0.0191063          22.1058           151.23       NO       
      PART-1-1.3831        0.0123607          16.5331          155.625       NO       
      PART-1-1.3837       0.00385279          14.9152          158.732       NO       
      PART-1-1.3838       0.00325521          17.8089          160.144       NO       
      PART-1-1.4318      0.000118187             6.62          167.449       NO       
      PART-1-1.4699        0.0123613          11.6203          153.727       NO       
      PART-1-1.4764        0.0173202          17.5181          153.722       NO       
      PART-1-1.4790      6.82898E-05          6.54808          167.846       NO       
      PART-1-1.4793      5.94307E-05          6.01481          169.567       NO       
      PART-1-1.4795      5.80517E-05          7.59487          169.951       NO       
      PART-1-1.4796      0.000506306          10.4389          165.479       NO       
      PART-1-1.4797      9.86697E-05          6.93165          165.447       NO       
      PART-1-1.4799      0.000493913          12.2019          164.499       NO       
      PART-1-1.4800      6.75085E-05          8.53053          171.531       NO       
      PART-1-1.4802        0.0147911          16.5898          154.315       NO       
      PART-1-1.4813       0.00283258          10.0663          158.487       NO       
      PART-1-1.4814      6.35713E-05          8.62602          169.934       NO       
      PART-1-1.4816      0.000199795          10.6909          168.872       NO       
      PART-1-1.4817      0.000143054          7.17618           165.31       NO       
      PART-1-1.4818      9.85044E-05          8.12946          168.794       NO       
      PART-1-1.4897      6.12351E-05          8.99429          171.136       NO       
      PART-1-1.5102        0.0133692          16.6221          155.158       NO       
      PART-1-1.5218         0.014267          21.4447          154.553       NO       
      PART-1-1.5220        0.0108108          12.2528          155.867       NO       
      PART-1-1.5225       0.00416541          16.0731          155.422       NO       
      PART-1-1.5226       0.00310847          10.1804          159.403       NO       
      PART-1-1.5235        0.0104838          19.0607          156.363       NO       
      PART-1-1.5242        0.0168538          20.2981          154.037       NO       
      PART-1-1.5245       0.00287675          10.4783          160.039       NO       
      PART-1-1.5247       0.00396377          16.0103          155.673       NO       
      PART-1-1.5249        0.0141551          20.7311          153.502       NO       
      PART-1-1.5250        0.0194194           12.773          151.337       NO       
      PART-1-1.5255       0.00366589          13.3221          159.702       NO       
      PART-1-1.5317       0.00334503          10.3591          158.988       NO       
      PART-1-1.5320        0.0169511          20.4981          153.983       NO       
      PART-1-1.5321        0.0111488          19.2613          155.966       NO       
      PART-1-1.5324        0.0139512          21.2382          154.747       NO       
      PART-1-1.5326       0.00268178          15.9172          161.471       NO       
      PART-1-1.5327       0.00265659          12.8377          160.739       NO       
      PART-1-1.5638        0.0199394          12.8437          153.445       NO       
      PART-1-1.5683       0.00276693          12.9102           160.51       NO       
      PART-1-1.5721        0.0189317          12.4463          153.762       NO       
      PART-1-1.5724       0.00360291          17.0177          160.995       NO       
      PART-1-1.5864       0.00502414          10.5238          159.147       NO       
      PART-1-1.5869        0.0016182          11.8581          162.784       NO       
      PART-1-1.5878       0.00314234          10.7688          158.698       NO       
      PART-1-1.5879       0.00255088          16.0872          161.384       NO       
      PART-1-1.5971        0.0152045          15.5919          154.174       NO       
      PART-1-1.6250        0.0165344          21.0459          153.517       NO       
      PART-1-1.6299         0.019942          22.9595          150.854       NO       
      PART-1-1.6308       0.00583892          17.0222          153.299       NO       
      PART-1-1.6425        0.0153481          17.1582          154.313       NO       
      PART-1-1.6523       0.00356012          10.4185          158.121       NO       
      PART-1-1.6644       0.00499423           13.973          158.133       NO       
      PART-1-1.6670       0.00477194          10.3143          158.518       NO       
      PART-1-1.6694       0.00727496          10.7874          157.777       NO       
      PART-1-1.6695       0.00201343          10.3398          160.518       NO       
      PART-1-1.6698       0.00923032          18.7211          156.579       NO       
      PART-1-1.6708       0.00200077          14.7412          159.057       NO       
      PART-1-1.6713       0.00555448          17.3027          158.682       NO       
      PART-1-1.6715       0.00836277          11.5865          153.794       NO       
      PART-1-1.6719       0.00228976          12.7555          161.278       NO       
      PART-1-1.6733        0.0085376          11.7729          153.056       NO       
      PART-1-1.6734       0.00211349          15.1517          158.671       NO       
      PART-1-1.6735        0.0089557          18.3696          156.651       NO       
      PART-1-1.6740       0.00286815          16.9603          161.487       NO       
      PART-1-1.6741       0.00615352          10.2715          158.683       NO       
      PART-1-1.6768       0.00250174          13.2532          160.902       NO       
      PART-1-1.6769       0.00361194          11.0982          157.433       NO       
      PART-1-1.6772       0.00996893          19.0971          155.797       NO       
      PART-1-1.6773        0.0066168          17.8924          158.943       NO       
      PART-1-1.6774       0.00294714          16.9123          160.702       NO       
      PART-1-1.6804       0.00214294          14.9825          162.459       NO       
      PART-1-1.6827      0.000629591          10.8123          164.888       NO       
      PART-1-1.6833       0.00121811          13.6453          165.068       NO       
      PART-1-1.6834      0.000990271          8.71773           163.92       NO       
      PART-1-1.6835       0.00186979          15.1132           162.56       NO       
      PART-1-1.6937        0.0181438          16.9571          152.785       NO       
      PART-1-1.6941        0.0172658          21.7823          152.194       NO       
      PART-1-1.7039        0.0165401          16.4301          154.377       NO       
      PART-1-1.7221        0.0196828          16.9431          152.477       NO       
      PART-1-1.7369       0.00214123          9.25404          161.417       NO       
      PART-1-1.7372       0.00270102          15.7364          162.683       NO       
      PART-1-1.7373       0.00720209          15.2184          155.688       NO       
      PART-1-1.7656       0.00261128          10.5136          159.993       NO       
      PART-1-1.7685        0.0132434          11.1393          154.352       NO       
      PART-1-1.7687        0.0123873          20.4259          155.398       NO       
      PART-1-1.7688       0.00382923          14.3008          158.799       NO       
      PART-1-1.7704       0.00321445          16.8607          161.601       NO       
      PART-1-1.7719       0.00242337          14.0613          158.702       NO       
      PART-1-1.7720       0.00581115          15.0365          156.985       NO       
      PART-1-1.7733       0.00258574          10.1224          159.913       NO       
      PART-1-1.7756        0.0159768          20.9732          152.634       NO       
      PART-1-1.7899        0.0032332          15.3461          161.351       NO       
      PART-1-1.7903       0.00422505          9.57378          160.248       NO       
      PART-1-1.7927       0.00283309           17.272          160.683       NO       
      PART-1-1.8428       0.00297196          17.6326          160.292       NO       
      PART-1-1.8443        0.0080831          18.6327          156.162       NO       
      PART-1-1.8558       0.00278165          15.6071          157.378       NO       
      PART-1-1.8559       0.00333915          17.2261          161.004       NO       
      PART-1-1.8560       0.00949407          10.9763          157.023       NO       
      PART-1-1.8562       0.00270774          10.8253          159.595       NO       
      PART-1-1.8565       0.00715387          18.0074          157.542       NO       
      PART-1-1.8651       0.00301049          16.3245          161.084       NO       
      PART-1-1.8652       0.00391301          15.3788          156.091       NO       
      PART-1-1.8697       0.00217156          14.9034          162.578       NO       
      PART-1-1.8722       0.00170198          14.5627          163.333       NO       
      PART-1-1.8723      8.03983E-05          9.54318          169.174       NO       
      PART-1-1.8757       0.00255657           15.708          161.724       NO       
      PART-1-1.8760        0.0115829          19.4886          155.817       NO       
      PART-1-1.8761        0.0115714          12.3888          155.696       NO       
      PART-1-1.8767       0.00319528           10.188          159.269       NO       
      PART-1-1.8769       0.00413147          15.9464           155.53       NO       
      PART-1-1.8770        0.0153123          21.7026          154.125       NO       
      PART-1-1.8845       0.00277284          15.2782          162.965       NO       
      PART-1-1.8951      0.000790944          12.8659          162.823       NO       
      PART-1-1.9027        0.0182365          16.8239           153.15       NO       
      PART-1-1.9038       0.00376902          10.3472           158.38       NO       
      PART-1-1.9042       0.00789032          17.9029          158.018       NO       
      PART-1-1.9075        0.0105361          12.1069          156.194       NO       
      PART-1-1.9156       0.00422588           14.127           158.55       NO       
      PART-1-1.9205        0.0033664          16.3242          156.227       NO       
      PART-1-1.9206        0.0065578          18.2424          158.927       NO       
      PART-1-1.9262       0.00381171          16.4881          155.608       NO       
      PART-1-1.9388      0.000796595          9.08306          162.202       NO       
      PART-1-1.9551       0.00294473          13.8842          160.134       NO       
      PART-1-1.9570       0.00459171          10.1524          160.745       NO       
      PART-1-1.9575       0.00279306          15.6196          162.263       NO       
      PART-1-1.9576       0.00248665          16.0157          162.217       NO       
      PART-1-1.9582       0.00317465          14.1907          157.569       NO       
      PART-1-1.9724      0.000390862          11.3869          167.666       NO       
      PART-1-1.9726      0.000431823          9.71633          165.988       NO       
      PART-1-1.9748       0.00274742          16.2071          161.148       NO       
      PART-1-1.9767      0.000134898          9.95428          169.589       NO       
      PART-1-1.9768      0.000103564          9.31578          170.504       NO       
      PART-1-1.9774        0.0045669          14.6208          155.841       NO       
      PART-1-1.9777       0.00215365           8.7045          162.155       NO       
      PART-1-1.9878        0.0034601          10.1367          159.213       NO       
      PART-1-1.9928      0.000572885          8.13693           163.83       NO       
      PART-1-1.9929       0.00201491          10.2576          161.191       NO       
     PART-1-1.10072        0.0061097           16.666          153.316       NO       
     PART-1-1.10074       0.00469076          13.3846          158.636       NO       
     PART-1-1.10100       0.00022895          7.71283          165.613       NO       
     PART-1-1.10101       0.00110066          11.4654           162.98       NO       
     PART-1-1.10126       0.00302008          16.6263          160.868       NO       
     PART-1-1.10140        0.0182999          16.8398            153.1       NO       
     PART-1-1.10158       0.00344996          13.8115            159.5       NO       
     PART-1-1.10163       0.00322633          15.2755          156.963       NO       
     PART-1-1.10164       0.00374631          10.6905          157.899       NO       
     PART-1-1.10172         0.014288          20.4991          154.211       NO       
     PART-1-1.10187       0.00384719          17.1923          160.704       NO       
     PART-1-1.10258        0.0183019          20.0208          154.344       NO       
     PART-1-1.10261       0.00654138          17.2575          152.644       NO       
     PART-1-1.10278        0.0180874          17.3305          153.121       NO       
     PART-1-1.10345         0.015182           12.969          154.525       NO       
     PART-1-1.10349        0.0141978           20.214          154.867       NO       
     PART-1-1.10350       0.00330267          13.2292          159.785       NO       
     PART-1-1.10356       0.00385626          16.7149          160.935       NO       
     PART-1-1.10360        0.0100249          19.1967          155.551       NO       
     PART-1-1.10361       0.00302401          10.2052          160.764       NO       
     PART-1-1.10374        0.0132615          11.7473          155.515       NO       
     PART-1-1.10379       0.00996229          19.2879          155.635       NO       
     PART-1-1.10382       0.00299794          15.4406          157.149       NO       
     PART-1-1.10383        0.0139381          12.2051          152.421       NO       
     PART-1-1.10388       0.00323621          13.2855          160.086       NO       
     PART-1-1.10392        0.0106293          17.8906          149.771       NO       
     PART-1-1.10738       0.00187613          9.75651          158.292       NO       
     PART-1-1.10739      0.000676303          13.2385           165.81       NO       
     PART-1-1.10740        0.0005828          12.4404          163.975       NO       
     PART-1-1.10761      0.000930243          11.2508          163.422       NO       
     PART-1-1.10768       0.00265739          16.0535          161.251       NO       
     PART-1-1.10771      0.000402915           7.7667          165.581       NO       
     PART-1-1.10794        0.0107273          19.4894          155.165       NO       
     PART-1-1.11072       0.00649768          17.2167          158.365       NO       
     PART-1-1.11078        0.0142435          12.8035          150.773       NO       
     PART-1-1.11089        0.0035586          16.3437          161.443       NO       
     PART-1-1.11314       0.00237085          15.0551          162.346       NO       
     PART-1-1.11428       0.00934473           14.418          157.402       NO       
     PART-1-1.11458        0.0191161          22.0153          151.616       NO       
     PART-1-1.11513       0.00518452           15.922          154.521       NO       
     PART-1-1.11566       0.00300558          9.53488          160.241       NO       
     PART-1-1.11679       0.00364178          9.41654          160.585       NO       
     PART-1-1.11692        0.0043678          13.1854          158.662       NO       
     PART-1-1.11699       0.00900289          17.3877          150.963       NO       
     PART-1-1.11702       0.00365345          15.8336          160.842       NO       
     PART-1-1.11703       0.00477336          9.70371          159.524       NO       
     PART-1-1.11707       0.00253295          11.1163          159.494       NO       
     PART-1-1.11708       0.00903443          12.2928          151.725       NO       
     PART-1-1.11711       0.00710092           17.239          157.832       NO       
     PART-1-1.11712       0.00171573          12.0242           162.76       NO       
     PART-1-1.11803        0.0171618          22.2269          151.902       NO       
     PART-1-1.12021        0.0196221          17.5574          152.533       NO       
     PART-1-1.12124        0.0181666            17.54          153.311       NO       
     PART-1-1.12167       0.00372881          16.4329          160.405       NO       
     PART-1-1.12339         0.019519          22.5059          151.171       NO       
     PART-1-1.12343       0.00327652          16.2942          161.574       NO       
     PART-1-1.12346       0.00330675           12.646          160.244       NO       
     PART-1-1.12408       0.00245338          9.99861          160.087       NO       
     PART-1-1.12413       0.00678054          17.6454          158.384       NO       
     PART-1-1.12591       0.00393486          15.8366          155.812       NO       
     PART-1-1.12592        0.0145848          21.3499          154.486       NO       
     PART-1-1.12596       0.00378124            13.96          159.312       NO       
     PART-1-1.12609       0.00710755          11.5419          157.269       NO       
     PART-1-1.12615       0.00923271          19.8557          156.932       NO       
     PART-1-1.12617       0.00198341          15.0684          162.605       NO       
     PART-1-1.12662       0.00341104           10.529           157.95       NO       
     PART-1-1.12665       0.00276599          16.5235          161.228       NO       
     PART-1-1.12668       0.00596681          16.9931          153.267       NO       
     PART-1-1.12676       0.00367443          10.6896          159.604       NO       
     PART-1-1.12678       0.00452753          13.4762          159.082       NO       
     PART-1-1.12742        0.0120743          19.9845          154.389       NO       
     PART-1-1.12744        0.0024161          14.4115          158.522       NO       
     PART-1-1.12745        0.0122204          11.4004          154.351       NO       
     PART-1-1.12746         0.016155          12.3407          154.902       NO       
     PART-1-1.12755       0.00662713           15.341          156.439       NO       
     PART-1-1.12756        0.0027168          14.2715          158.163       NO       
     PART-1-1.12758       0.00368256          17.2729          161.067       NO       
     PART-1-1.12769         0.010949          15.8673          155.204       NO       
     PART-1-1.12771        0.0109286          20.2631          154.829       NO       
     PART-1-1.12904       0.00147141          11.4018          163.197       NO       
     PART-1-1.12906       0.00236928          15.5711          161.819       NO       
     PART-1-1.12916       0.00837635          19.4082          157.611       NO       
     PART-1-1.12917       0.00644414          11.1193          157.662       NO       
     PART-1-1.12918       0.00601354           16.805          159.046       NO       
     PART-1-1.12961       0.00171496          11.8746          162.355       NO       
     PART-1-1.13387       0.00287733          16.5771          161.417       NO       
     PART-1-1.13594       0.00318428           16.512          161.662       NO       
     PART-1-1.13603        0.0195702          21.3136          153.164       NO       
     PART-1-1.13631       0.00419345          14.3701          158.438       NO       
     PART-1-1.13632       0.00286693          16.4377          161.186       NO       
     PART-1-1.13633        0.0172213          21.5614          153.123       NO       
     PART-1-1.13724        0.0105034          12.2543           155.76       NO       
     PART-1-1.13728       0.00144592          14.4502          160.451       NO       
     PART-1-1.13739       0.00215647          13.4251           161.37       NO       
     PART-1-1.13744       0.00237607          15.8854          157.871       NO       
     PART-1-1.13747       0.00309209          17.2644          161.034       NO       
     PART-1-1.13925        0.0163996          16.5108          154.168       NO       
     PART-1-1.13965        0.0128432          20.6751          154.033       NO       
     PART-1-1.13973        0.0170694          12.3395          154.077       NO       
     PART-1-1.14010       0.00363261          10.3165          158.589       NO       
     PART-1-1.14011       0.00398095          15.5342           155.93       NO       
     PART-1-1.14029        0.0191317          11.6057          154.943       NO       
     PART-1-1.14062       0.00267139          10.2959           160.32       NO       
     PART-1-1.14067       0.00374221          13.4098          159.502       NO       
     PART-1-1.14210       0.00258553          10.2525          160.295       NO       
     PART-1-1.14260        0.0102751          14.5765          157.119       NO       
     PART-1-1.14339        0.0031654          9.86596          159.395       NO       
     PART-1-1.14340       0.00405515          13.9087          158.603       NO       
     PART-1-1.14352       0.00249038          14.4116          158.438       NO       
     PART-1-1.14353        0.0153714          21.2026          153.565       NO       
     PART-1-1.14355       0.00925008          11.8179           157.67       NO       
     PART-1-1.14368       0.00282707          10.7721          159.246       NO       
     PART-1-1.14377        0.0162936          20.6889          153.518       NO       
     PART-1-1.14379        0.0116919            11.35          156.713       NO       
     PART-1-1.14380       0.00870957          18.5161          156.491       NO       
     PART-1-1.14388       0.00348814          17.4289          160.917       NO       
     PART-1-1.14390       0.00827189          19.0738          157.782       NO       
     PART-1-1.14397       0.00185944          12.0854          162.309       NO       
     PART-1-1.14401        0.0167909          12.9681          150.437       NO       
     PART-1-1.14404       0.00630292          10.9153           158.31       NO       
     PART-1-1.14407        0.0033766           15.865          156.417       NO       
     PART-1-1.14408        0.0152759          12.7229          151.616       NO       
     PART-1-1.14417       0.00766107          17.6905           157.69       NO       
     PART-1-1.14434        0.0157143          19.7523          155.004       NO       
     PART-1-1.14435       0.00325702          16.2034          161.715       NO       
     PART-1-1.14450        0.0194619          20.8319          153.773       NO       
     PART-1-1.14457       0.00256696          9.84325          161.203       NO       
     PART-1-1.14459       0.00410191          13.2002          159.168       NO       
     PART-1-1.14477       0.00340125          10.7784          158.577       NO       
     PART-1-1.14521        0.0110627           10.905          154.979       NO       
     PART-1-1.14527       0.00243843          16.1972          161.726       NO       
     PART-1-1.14531        0.0136246          20.9011          154.164       NO       
     PART-1-1.14537        0.0029958           10.356          158.356       NO       
     PART-1-1.14542        0.0107272          19.9203          156.137       NO       
     PART-1-1.14549        0.0004747          11.8107          164.768       NO       
     PART-1-1.14554       0.00295007          10.2983          159.455       NO       
     PART-1-1.14555         0.015739          11.1844          154.638       NO       
     PART-1-1.14558        0.0184739          21.4993          151.723       NO       
     PART-1-1.14582       0.00476037          16.1058          154.816       NO       
     PART-1-1.14585       0.00275265          15.7905           161.52       NO       
     PART-1-1.14664       0.00178188          11.7832          162.561       NO       
     PART-1-1.14667        0.0024837          10.3407          160.037       NO       
     PART-1-1.14723        0.0138204          20.6202           153.59       NO       
     PART-1-1.14724        0.0174447          20.8127          153.678       NO       
     PART-1-1.14806        0.0137657          21.5906          154.677       NO       
     PART-1-1.14808       0.00267996          9.87973          160.327       NO       
     PART-1-1.14812       0.00190137          11.8224          162.098       NO       
     PART-1-1.14814        0.0105478          12.3521          155.324       NO       
     PART-1-1.14819       0.00461243          16.5015          154.712       NO       
     PART-1-1.14822       0.00355123          17.0221          160.717       NO       
     PART-1-1.14824      0.000764144          12.2234          163.254       NO       
     PART-1-1.14827       0.00340637          16.7322          160.245       NO       
     PART-1-1.14828      0.000589259          12.3181          167.112       NO       
     PART-1-1.14833       0.00418302          17.4219          160.296       NO       
     PART-1-1.14837       0.00519004           17.022          153.909       NO       
     PART-1-1.14839       0.00332263          10.7931          159.742       NO       
     PART-1-1.14844        0.0168039          12.3281          155.156       NO       
     PART-1-1.14875       0.00233412          15.3682          162.085       NO       
     PART-1-1.14876       0.00424545          16.1879          155.269       NO       
     PART-1-1.14877       0.00291541          10.0644          159.756       NO       
     PART-1-1.14983        0.0142653          12.3167          153.763       NO       
     PART-1-1.14988        0.0155269          19.3198          146.675       NO       
     PART-1-1.15047        0.0118322          19.1049          155.572       NO       
     PART-1-1.15048       0.00780763          18.3806          157.044       NO       
     PART-1-1.15059       0.00599625          16.7723          158.607       NO       
     PART-1-1.15062       0.00413688          9.56523          159.838       NO       
     PART-1-1.15122       0.00360783          15.3856          156.402       NO       
     PART-1-1.15150      0.000657102           8.8638          162.746       NO       
     PART-1-1.15171      0.000118361          10.0491          169.561       NO       
     PART-1-1.15179        0.0185792          17.9814          153.095       NO       
     PART-1-1.15336       0.00225621          12.3464           161.38       NO       
     PART-1-1.15339        0.0137896          21.4062          154.721       NO       
     PART-1-1.15342       0.00936585            18.62          157.008       NO       
     PART-1-1.15360        0.0167389          20.0541          154.182       NO       
     PART-1-1.15361       0.00306701          10.6018          159.896       NO       
     PART-1-1.15362       0.00442252          16.3871          154.989       NO       
     PART-1-1.15364        0.0146559          20.8864          153.311       NO       
     PART-1-1.15367       0.00356639          13.1551          159.946       NO       
     PART-1-1.15368       0.00323666          16.9232          161.308       NO       
     PART-1-1.15370        0.0141723          19.9145          154.671       NO       
     PART-1-1.15452      4.64817E-05             7.04          170.458       NO       
     PART-1-1.15453      0.000117487          7.05021          167.593       NO       
     PART-1-1.15456      0.000133182          10.1031          170.025       NO       
     PART-1-1.15460      9.53435E-05           9.5428          170.284       NO       
     PART-1-1.15463      7.37129E-05            9.207          169.415       NO       
     PART-1-1.15464       0.00262696          10.5847          157.403       NO       
     PART-1-1.15467       0.00161805           9.9763          161.285       NO       
     PART-1-1.15468       0.00196972          15.6721          163.063       NO       
     PART-1-1.15470      3.99462E-05          7.91465          172.103       NO       
     PART-1-1.15471      0.000462734          7.89513          164.775       NO       
     PART-1-1.15473      0.000159221           7.6278          164.364       NO       
     PART-1-1.15476        0.0167709          21.0158          152.673       NO       
     PART-1-1.15490      0.000905783           13.488          162.193       NO       
     PART-1-1.15496      0.000848042          13.5405          165.684       NO       
     PART-1-1.15498      0.000668829          10.4103          165.095       NO       
     PART-1-1.15503      0.000713184          8.99287          163.719       NO       
     PART-1-1.15508      6.26813E-05          7.39862          170.048       NO       
     PART-1-1.15509       0.00210699            9.496          160.719       NO       
     PART-1-1.15511      7.69916E-05          9.17176          171.006       NO       
     PART-1-1.15512      6.85181E-05          6.54207           168.73       NO       
     PART-1-1.15515      0.000172714          7.75293          163.838       NO       
     PART-1-1.15519       0.00296892          10.8257           156.32       NO       
     PART-1-1.15532       0.00280665          15.0169          161.905       NO       
     PART-1-1.15544       0.00277369          16.0777          161.332       NO       
     PART-1-1.15547       0.00297425          13.1811           160.22       NO       
     PART-1-1.15550        0.0109765          12.1715          156.222       NO       
     PART-1-1.15554        0.0124771          19.7793          155.287       NO       
     PART-1-1.15555       0.00346019          10.4048          158.739       NO       
     PART-1-1.15568       0.00322369          16.7095          161.495       NO       
     PART-1-1.15571       0.00330766          15.3586          156.783       NO       
     PART-1-1.15573        0.0165762          12.2387          152.573       NO       
     PART-1-1.15577        0.0184715          12.5276          153.981       NO       
     PART-1-1.15579        0.0179924          21.4381          153.161       NO       
     PART-1-1.15580       0.00423236          14.1441          158.562       NO       
     PART-1-1.15581        0.0039203           13.648          159.187       NO       
     PART-1-1.15708       0.00262822          13.8136          160.467       NO       
     PART-1-1.15710       0.00669358          10.5484          154.953       NO       
     PART-1-1.15711       0.00343206          11.2936           156.79       NO       
     PART-1-1.15762      2.09911E-20      0.000343773          179.999       NO       
     PART-1-1.15838        0.0191497          12.7922          153.337       NO       
     PART-1-1.15849        0.0129392          16.2628          155.312       NO       
     PART-1-1.15950         0.019241          13.4199          152.884       NO       
     PART-1-1.16049      0.000493436           7.9704          165.151       NO       
     PART-1-1.16050       0.00424828          11.1265          157.998       NO       
     PART-1-1.16061        0.0183982          11.6861          154.532       NO       
     PART-1-1.16189       0.00348598          14.1422          159.099       NO       
     PART-1-1.16319        0.0187614          13.8964          152.633       NO       
     PART-1-1.16445        0.0196274          12.3454          153.328       NO       
     PART-1-1.16451        0.0134016          11.8685          155.843       NO       
     PART-1-1.16566      0.000834764          11.2977          163.951       NO       
     PART-1-1.16568         0.019829          11.8919          153.829       NO       
     PART-1-1.16569       0.00255829          16.0503            161.5       NO       
     PART-1-1.16807        0.0124264          12.3566          156.205       NO       
     PART-1-1.16808        0.0198235          11.9838          152.607       NO       
     PART-1-1.16809       0.00309259          16.5523          160.872       NO       
     PART-1-1.16816        0.0165661          21.0871           153.52       NO       
     PART-1-1.16830       0.00361899          15.3502          156.443       NO       
     PART-1-1.16831       0.00385444          10.5515          158.042       NO       
     PART-1-1.16849       0.00232477          10.1087          160.335       NO       
     PART-1-1.16852       0.00287968          16.5362          161.932       NO       
     PART-1-1.17044       0.00997113          19.5328          155.267       NO       
     PART-1-1.17123      0.000478166          11.9235          167.635       NO       
     PART-1-1.17135       0.00669417          16.6411          158.734       NO       
     PART-1-1.17141       0.00313334           16.326           160.63       NO       
     PART-1-1.17142       0.00966796          19.8057           157.06       NO       
     PART-1-1.17143       0.00329086           10.793          158.824       NO       
     PART-1-1.17145       0.00562554          17.8092          153.102       NO       
     PART-1-1.17146       0.00391665          10.9614           158.61       NO       
     PART-1-1.17149       0.00153478          11.2995          163.358       NO       
     PART-1-1.17151      0.000595057          11.7702           164.14       NO       
     PART-1-1.17156        0.0124627           18.789          156.519       NO       
     PART-1-1.17157        0.0026296          11.9186          161.211       NO       
     PART-1-1.17158       0.00220169          9.66616          162.018       NO       
     PART-1-1.17298      0.000796606          11.1442          163.885       NO       
     PART-1-1.17304       0.00237673          16.1136          161.904       NO       
     PART-1-1.17306      0.000483252          12.0491          167.099       NO       
     PART-1-1.17309       0.00224855          9.68811          159.039       NO       
     PART-1-1.17314      0.000629447          11.9441          163.946       NO       
     PART-1-1.17335      0.000683097          13.2704          166.312       NO       
     PART-1-1.17338       0.00152512          9.37788          159.409       NO       
     PART-1-1.17339       0.00134275          13.7351          164.147       NO       
     PART-1-1.17520       0.00434913          13.8027          158.685       NO       
     PART-1-1.17531       0.00254176          10.0541          160.579       NO       
     PART-1-1.17540        0.0189632          12.3395          152.537       NO       
     PART-1-1.17545       0.00360746          13.2331          159.381       NO       
     PART-1-1.17547       0.00278318          9.83738          161.138       NO       
     PART-1-1.17549        0.0171054          21.5723          152.142       NO       
     PART-1-1.17558        0.0026346          15.3838          161.866       NO       
     PART-1-1.17569       0.00334143          9.79856          159.843       NO       
     PART-1-1.17571        0.0158151          20.6206          154.561       NO       
     PART-1-1.17583         0.005659          16.3443           153.88       NO       
     PART-1-1.17590        0.0117235          19.0883          155.528       NO       
     PART-1-1.17598        0.0027089          12.9542          160.913       NO       
     PART-1-1.17604        0.0120566          12.2151          152.135       NO       
     PART-1-1.17641       0.00334188          16.7518           161.35       NO       
     PART-1-1.17642        0.0144546          20.8582          153.312       NO       
     PART-1-1.17650       0.00372067          15.7364          156.087       NO       
     PART-1-1.17653        0.0192985          12.5937           153.61       NO       
     PART-1-1.17654        0.0184948          12.5843           151.86       NO       
     PART-1-1.17671       0.00939019          15.8666          154.267       NO       
     PART-1-1.17707       0.00239736           9.2219          161.191       NO       
     PART-1-1.17769       0.00431061          16.2373          160.917       NO       
     PART-1-1.17773       0.00411629          16.0647          155.487       NO       
     PART-1-1.17782       0.00364196          14.2652          156.989       NO       
     PART-1-1.17835        0.0184445          17.5195           152.88       NO       
     PART-1-1.17838        0.0015584          14.1413          160.316       NO       
     PART-1-1.17849       0.00326132          9.60861          161.971       NO       
     PART-1-1.17937        0.0073062          16.7877          152.403       NO       
     PART-1-1.17956       0.00349871          16.9978          161.097       NO       
     PART-1-1.17957       0.00359408          15.7378          156.241       NO       
     PART-1-1.17959       0.00280386           10.471          159.996       NO       
     PART-1-1.17960        0.0131759          20.3969          153.954       NO       
     PART-1-1.17961        0.0175639          12.5127          151.852       NO       
     PART-1-1.17963       0.00370445           13.451          159.581       NO       
     PART-1-1.17972      0.000786126          8.46707          164.434       NO       
     PART-1-1.17973        0.0191296          22.6438          151.133       NO       
     PART-1-1.17984      4.47126E-05          5.79808          169.329       NO       
     PART-1-1.18065        0.0166778          11.8649          152.729       NO       
     PART-1-1.18073        0.0129319           20.613          155.257       NO       
     PART-1-1.18100       0.00235981          9.96289          160.531       NO       
     PART-1-1.18105       0.00276651          14.5647          157.917       NO       
     PART-1-1.18108        0.0147628          11.5973          154.072       NO       
     PART-1-1.18112        0.0153972          21.0233          152.817       NO       
     PART-1-1.18123       0.00473456          14.2925          158.054       NO       
     PART-1-1.18258        0.0149721          12.8495          155.249       NO       
     PART-1-1.18260       0.00611951          17.4348          159.352       NO       
     PART-1-1.18262        0.0038507          11.3122          156.719       NO       
     PART-1-1.18268       0.00315435          17.3783          160.333       NO       
     PART-1-1.18269        0.0116291          19.8652          154.698       NO       
     PART-1-1.18275       0.00207675          14.6929          159.012       NO       
     PART-1-1.18281        0.0179363          21.4496          153.202       NO       
     PART-1-1.18294       0.00226086           14.425          158.773       NO       
     PART-1-1.18295       0.00296133          16.7643          161.718       NO       
     PART-1-1.18298       0.00391647          14.0335          158.954       NO       
     PART-1-1.18316       0.00239981          10.3098          160.026       NO       
     PART-1-1.18319        0.0109701           11.333          154.328       NO       
     PART-1-1.18380       0.00251199          12.6534           160.94       NO       
     PART-1-1.18381       0.00248961           15.618          161.814       NO       
     PART-1-1.18481       0.00880411          10.7004          157.698       NO       
     PART-1-1.18482        0.0126725          19.3844          154.944       NO       
     PART-1-1.18560       0.00209791          9.69475          159.344       NO       
     PART-1-1.18569       0.00214169          14.0746           159.17       NO       
     PART-1-1.18570       0.00805993          11.6532          158.094       NO       
     PART-1-1.18661       0.00481586          13.7567          158.154       NO       
     PART-1-1.18667       0.00400103          9.81068          159.572       NO       
     PART-1-1.18668       0.00311481           15.668          161.318       NO       
     PART-1-1.18681       0.00468465          16.5967          159.631       NO       
     PART-1-1.18684       0.00234782          10.7831          159.792       NO       
     PART-1-1.18688       0.00218568           12.665           161.63       NO       
     PART-1-1.18853        0.0151649          16.8128          153.899       NO       
     PART-1-1.18871        0.0176314          12.3095          154.212       NO       
     PART-1-1.18872        0.0167628          20.4183          153.945       NO       
     PART-1-1.18934        0.0191721          16.9067          153.532       NO       
     PART-1-1.18974      4.38331E-05          5.75903          169.898       NO       
     PART-1-1.18976      4.92454E-05          8.20368          172.033       NO       
     PART-1-1.18978      0.000211761          11.2043          168.534       NO       
     PART-1-1.19084       0.00943967           11.048          153.873       NO       
     PART-1-1.19112      0.000560045          12.8253          166.339       NO       
     PART-1-1.19113       4.7384E-05          8.64375          170.405       NO       
     PART-1-1.19114       0.00152091          9.59543          158.769       NO       
     PART-1-1.19116       0.00145202          14.5203           163.41       NO       
     PART-1-1.19117      0.000957888          13.1326          165.778       NO       
     PART-1-1.19147       0.00737352          11.0785          157.259       NO       
     PART-1-1.19219        0.0179196          20.5901           144.83       NO       
     PART-1-1.19223        0.0176474          22.7941          151.325       NO       
     PART-1-1.19224        0.0113179          16.2369          155.746       NO       
     PART-1-1.19234       0.00246167          16.3461          162.219       NO       
     PART-1-1.19384       0.00381362            13.82          159.047       NO       
     PART-1-1.19387       0.00290253          16.1822          161.228       NO       
     PART-1-1.19389        0.0161563          20.9553          153.854       NO       
     PART-1-1.19393        0.0188066          22.4246          152.855       NO       
     PART-1-1.19401        0.0165519          20.8873          153.637       NO       
     PART-1-1.19406        0.0140405          12.7264          155.367       NO       
     PART-1-1.19409        0.0193992          17.0245          153.271       NO       
     PART-1-1.19410       0.00254058          14.7454          158.164       NO       
     PART-1-1.19421         0.014342          11.9808          155.445       NO       
     PART-1-1.19533       0.00563855          16.4404          153.844       NO       
     PART-1-1.19545        0.0112758          19.3932          155.671       NO       
     PART-1-1.19547        0.0174349          12.3753          151.783       NO       
     PART-1-1.19648       0.00889393            16.23          154.202       NO       
     PART-1-1.19717       0.00148506          13.5639          160.764       NO       
     PART-1-1.19737         0.018493          17.6501          153.252       NO       
     PART-1-1.19783       0.00709498          10.0389           155.97       NO       
     PART-1-1.19792       0.00395385           11.393          156.012       NO       
     PART-1-1.19809       0.00618503          17.3256           159.25       NO       
     PART-1-1.19835        0.0134636          15.7485          155.394       NO       
     PART-1-1.19898       0.00524451          16.3695          154.199       NO       
     PART-1-1.19962        0.0199025          20.8033          143.903       NO       
     PART-1-1.20044        0.0196067          12.4465          153.533       NO       
     PART-1-1.20226        0.0116558          20.3346           155.85       NO       
     PART-1-1.20237       0.00568548           10.609          154.479       NO       
     PART-1-1.20242       0.00203723          8.69341          163.623       NO       
     PART-1-1.20244       0.00358249          11.6875          156.278       NO       
     PART-1-1.20250       0.00356339          15.7739          156.276       NO       
     PART-1-1.20256       0.00267646          14.6287          163.003       NO       
     PART-1-1.20258       0.00272321          13.0755          160.606       NO       
     PART-1-1.20287        0.0106151          15.8874          153.468       NO       
     PART-1-1.20568        0.0167012          21.7537          153.675       NO       
     PART-1-1.20569        0.0039315          14.0374          158.914       NO       
     PART-1-1.20593        0.0160382          21.5808          153.837       NO       
     PART-1-1.20595        0.0167315          11.4498          153.807       NO       
     PART-1-1.20602        0.0119363          12.3705          156.498       NO       
     PART-1-1.20606       0.00298876          14.7103          157.566       NO       
     PART-1-1.20607       0.00466606          17.5961          160.011       NO       
     PART-1-1.20619       0.00250345          10.2384          159.867       NO       
     PART-1-1.20624       0.00309786          16.8721          161.635       NO       
     PART-1-1.20632       0.00493328          14.6783          157.799       NO       
     PART-1-1.20634       0.00221844          14.0802          159.022       NO       
     PART-1-1.20637        0.0124721          19.9584          154.239       NO       
     PART-1-1.20640        0.0115661          11.0448          154.968       NO       
     PART-1-1.20749        0.0029232          13.2524          160.615       NO       
     PART-1-1.20755        0.0113234          12.0045          152.342       NO       
     PART-1-1.20770       0.00659999           17.557          158.045       NO       
     PART-1-1.20784       0.00262331          15.5041          157.678       NO       
     PART-1-1.20803       0.00295575           11.073          159.039       NO       
     PART-1-1.20807       0.00363782          17.6454          160.582       NO       
     PART-1-1.20881        0.0112616          11.6502          152.807       NO       
     PART-1-1.20885       0.00251132          15.2539          157.994       NO       
     PART-1-1.20892       0.00499706          10.3833           160.02       NO       
     PART-1-1.20914       0.00618804          14.6006          156.749       NO       
     PART-1-1.20915       0.00234619          9.48673          161.257       NO       
     PART-1-1.20919        0.0165424           21.074           154.27       NO       
     PART-1-1.20925       0.00389726          14.9875           156.29       NO       
     PART-1-1.20936       0.00296823          15.9719          162.249       NO       
     PART-1-1.20957       0.00384651          13.4483          158.925       NO       
     PART-1-1.20990       0.00280727          16.2703          161.177       NO       
     PART-1-1.20993       0.00717105          16.8846          152.448       NO       
     PART-1-1.21606       0.00227561          10.9636          159.874       NO       
     PART-1-1.21628       0.00814578          12.2329          151.981       NO       
     PART-1-1.21646       0.00219784          15.7651          158.221       NO       
     PART-1-1.21666       0.00276946          16.9295          161.455       NO       
     PART-1-1.21668       0.00148501          11.7281          163.228       NO       
     PART-1-1.21685        0.0193446          17.6284          152.631       NO       
     PART-1-1.21717       0.00318952          15.5239          161.382       NO       
     PART-1-1.21745       0.00478148          13.2687          158.395       NO       
     PART-1-1.21746       0.00304859          15.9668          162.349       NO       
     PART-1-1.24833       0.00411269          11.2172          155.818       NO       
     PART-1-1.24866       0.00431357          17.6331          159.254       NO       
     PART-1-1.24893       0.00058263          12.1907          166.577       NO       
     PART-1-1.24922       0.00712752          18.1472          157.473       NO       
     PART-1-1.24924      0.000170053          8.50848          168.143       NO       
     PART-1-1.24925      0.000174261          10.2734          169.627       NO       
     PART-1-1.24926       0.00251577          10.6726          159.866       NO       
     PART-1-1.24927       0.00309764          16.9765          161.333       NO       
     PART-1-1.24928       0.00260862          15.3921          157.736       NO       
     PART-1-1.24931      0.000100108          6.54015          167.643       NO       
     PART-1-1.24935      0.000188508          10.7563          169.284       NO       
     PART-1-1.24937      0.000167826           7.1251          166.643       NO       
     PART-1-1.24944      0.000485162          8.46987          164.809       NO       
     PART-1-1.25017        0.0113068          12.0762          152.542       NO       
     PART-1-1.25018      0.000267491          7.26999          166.074       NO       
     PART-1-1.25020      0.000144667          10.2844          167.924       NO       
     PART-1-1.25033       0.00051305          12.5262          166.556       NO       
     PART-1-1.25040      0.000500434          12.1599          166.882       NO       
     PART-1-1.25056       0.00222762           14.311          158.896       NO       
     PART-1-1.25062       0.00761576          18.2438          157.181       NO       
     PART-1-1.25072      0.000245386           7.1342          166.412       NO       
     PART-1-1.25075        0.0148771          12.5524          154.422       NO       
     PART-1-1.25104        0.0045923          11.3982          157.375       NO       
     PART-1-1.25108       0.00304622          17.3105          160.389       NO       
     PART-1-1.25109       0.00202725          10.1927          161.166       NO       
     PART-1-1.25110         0.018788          22.0167          151.441       NO       
     PART-1-1.25150       0.00169724          9.42348          160.865       NO       
     PART-1-1.25176       0.00271083          16.4423          162.004       NO       
     PART-1-1.25191      4.06943E-05          7.31097          170.342       NO       
     PART-1-1.25238        0.0020309          9.45849          159.509       NO       
     PART-1-1.25259      0.000676686          8.40733           163.85       NO       
     PART-1-1.25295      0.000509932          12.5966          167.144       NO       
     PART-1-1.25326        0.0122562          20.6981          154.069       NO       
     PART-1-1.25327       0.00310863          15.2004          157.153       NO       
     PART-1-1.25339       0.00880492          10.8696          157.047       NO       
     PART-1-1.25353      0.000257166          8.75454          167.665       NO       
     PART-1-1.25357      0.000860191          13.7284          162.176       NO       
     PART-1-1.25370      0.000151568          7.12202          167.479       NO       
     PART-1-1.25373      6.12523E-05          6.50407          168.823       NO       
     PART-1-1.25375      0.000739793          12.3347          166.083       NO       
     PART-1-1.25376       0.00260517          11.1461          155.954       NO       
     PART-1-1.25387        0.0126255          8.88482          165.463       NO       
     PART-1-1.25415       0.00135661          14.1867          163.667       NO       
     PART-1-1.25418      0.000620237          13.0928          165.985       NO       
     PART-1-1.25503        0.0154473          21.6773          154.235       NO       
     PART-1-1.25515        0.0110087           18.824          156.254       NO       
     PART-1-1.25527       0.00380183          10.5506          158.791       NO       
     PART-1-1.25556       0.00246457          9.49195           161.05       NO       
     PART-1-1.25557       0.00312294          16.1279          162.097       NO       
     PART-1-1.25575       0.00988899          19.2563          155.675       NO       
     PART-1-1.25578       0.00441991          10.1922          160.573       NO       
     PART-1-1.25580       0.00344047          11.0812          157.376       NO       
     PART-1-1.25586       0.00253341          13.4272          160.743       NO       
     PART-1-1.25636       0.00584492          17.4215           159.51       NO       
     PART-1-1.25645      0.000425435          12.0544          166.925       NO       
     PART-1-1.25685        0.0105688          19.2607          155.303       NO       
     PART-1-1.25704      8.40696E-06          6.67556          173.077       NO       
     PART-1-1.25705      9.05195E-06          4.84109          171.352       NO       
     PART-1-1.25748       0.00133733          12.3858          162.367       NO       
     PART-1-1.25825      0.000712874          13.0008          165.882       NO       
     PART-1-1.26121        0.0126436          8.88725          165.459       NO       
     PART-1-1.26206         0.019202          22.2768          151.608       NO       
     PART-1-1.26312       0.00226089          15.6511          162.385       NO       
     PART-1-1.26313      0.000926174          12.8174           162.42       NO       
     PART-1-1.26316       0.00337392          15.9663          156.418       NO       
     PART-1-1.26327       0.00367869          10.9298          157.946       NO       
     PART-1-1.26389      0.000588167          12.7833           166.32       NO       
     PART-1-1.26431       0.00423816          11.0563          156.333       NO       
     PART-1-1.26442       0.00169232          10.1743          157.623       NO       
     PART-1-1.26505      0.000569034          11.6875           164.34       NO       
     PART-1-1.26661        0.0232081          10.8605           161.19       NO       
     PART-1-1.26672      0.000540367          8.82984          164.038       NO       
     PART-1-1.26673      0.000495254          12.3678          164.389       NO       
     PART-1-1.26674      0.000634254          13.1615          166.375       NO       
     PART-1-1.26679       0.00154507          14.4096          163.393       NO       
     PART-1-1.26692       0.00386878          17.6087          160.386       NO       
     PART-1-1.26693        0.0040245          10.7218          157.061       NO       
     PART-1-1.26694       0.00078824          10.7576          164.138       NO       
     PART-1-1.26696       0.00246504          15.8608          162.173       NO       
     PART-1-1.26697       0.00312213          11.0603          159.257       NO       
     PART-1-1.26698       0.00061776          8.00422          164.217       NO       
     PART-1-1.26796       0.00522818          16.8554          153.975       NO       
     PART-1-1.26876        0.0027218          16.0945          161.503       NO       
     PART-1-1.26947        0.0101093          11.1454          156.754       NO       
     PART-1-1.27131      0.000802334          12.5192           162.99       NO       
     PART-1-1.27384        0.0128854          14.7844          155.893       NO       
     PART-1-1.27418       1.7848E-05          6.92887          173.286       NO       
     PART-1-1.27456       0.00261176          15.6429           157.63       NO       
     PART-1-1.27526       0.00251668          10.6733          159.616       NO       
     PART-1-1.27527       0.00218008          14.7742          158.744       NO       
     PART-1-1.27528       0.00308993          17.0955          161.349       NO       
     PART-1-1.27542       0.00500089          15.8109          154.766       NO       
     PART-1-1.27545       0.00363303          9.95705          159.178       NO       
     PART-1-1.27549       0.00451307          13.9972           158.26       NO       
     PART-1-1.27570       0.00529975          14.9129          157.523       NO       
     PART-1-1.27643       0.00163774          15.0399          163.929       NO       
     PART-1-1.27684       0.00197341          15.0525          162.643       NO       
     PART-1-1.27685       0.00173688          14.5349          163.475       NO       
     PART-1-1.27694      0.000294814          10.9535           168.66       NO       
     PART-1-1.27885      0.000544943          8.28975          164.456       NO       
     PART-1-1.27888      0.000647123          12.8244           166.72       NO       
     PART-1-1.27907       0.00144231          9.19929           159.77       NO       
     PART-1-1.27908       0.00190084          15.5096          162.424       NO       
     PART-1-1.27909      0.000659975          11.0162           164.49       NO       
     PART-1-1.27910       0.00107589          9.06571          163.515       NO       
     PART-1-1.27911       0.00131781          13.9971          164.644       NO       
     PART-1-1.27934       0.00101933          13.0121          165.215       NO       
     PART-1-1.27935       0.00134464          9.40074          161.959       NO       
     PART-1-1.28107      0.000532695          12.2139          166.759       NO       
     PART-1-1.28110      0.000532751          12.0979          166.692       NO       
     PART-1-1.28154       0.00157049          13.6419          160.306       NO       
     PART-1-1.28162       0.00644771          19.6389          157.928       NO       
     PART-1-1.28167      0.000574994          12.8632          163.771       NO       
     PART-1-1.28180       0.00945245          8.72055          165.843       NO       
     PART-1-1.28202       0.00332432          14.8648          157.047       NO       
     PART-1-1.28205       0.00339465           10.176          158.631       NO       
     PART-1-1.28237       0.00224406          10.4677          157.311       NO       
     PART-1-1.28268        0.0028668          15.6649          161.501       NO       
     PART-1-1.28665      0.000746844          13.0886          162.936       NO       
     PART-1-1.28744       0.00129136           8.8648          162.417       NO       
     PART-1-1.28745      7.17499E-23      0.000147181             180.       NO       
[...]
     PART-1-1.68202        0.0153616          12.5569          152.159       NO       
     PART-1-1.68205       0.00809992          11.9283          156.647       NO       
     PART-1-1.68212        0.0150529           13.004          155.254       NO       
     PART-1-1.68320         0.015969          20.0762          145.866       NO       
     PART-1-1.68321        0.0186096           17.252          153.182       NO       
     PART-1-1.68322        0.0160998          13.5545          153.711       NO       
     PART-1-1.68335        0.0126435          16.0154           155.62       NO       
     PART-1-1.68488       0.00582658          9.91095          159.346       NO       
     PART-1-1.68507       0.00540655           10.981          156.421       NO       
     PART-1-1.68511      0.000182953          10.0816          167.571       NO       
     PART-1-1.68551      0.000150887          10.0045          169.755       NO       
     PART-1-1.68564       0.00187441          9.39008          161.518       NO       
     PART-1-1.68565      0.000875024          11.3183          163.863       NO       
     PART-1-1.68589       0.00251485          10.0813          159.529       NO       
     PART-1-1.68592       0.00224677           12.776          161.101       NO       
     PART-1-1.68594       0.00053298          8.07956          164.022       NO       
     PART-1-1.68596        0.0022081          15.7086          162.661       NO       
     PART-1-1.68597       0.00207979          15.7258          162.392       NO       
     PART-1-1.68598       0.00179653          10.0891           161.49       NO       
     PART-1-1.68600       0.00204461          15.4034          162.448       NO       
     PART-1-1.68606       0.00260322          14.9533          157.958       NO       
     PART-1-1.68681        0.0153514          25.7034          150.325       NO       
     PART-1-1.68751       0.00540567          16.2114          154.143       NO       
     PART-1-1.68770      0.000470212          11.8963          167.231       NO       
     PART-1-1.68847        0.0198737          17.1941          152.397       NO       
     PART-1-1.68948       0.00306437          10.5256          159.361       NO       
     PART-1-1.68952       0.00205419          9.62565          159.312       NO       
     PART-1-1.68953      0.000992214          11.4408          163.256       NO       
     PART-1-1.68954       0.00309777          16.7438          161.046       NO       
     PART-1-1.68989      0.000697319          8.80055          162.697       NO       
     PART-1-1.68990      0.000538509          12.1214          164.315       NO       
     PART-1-1.68992       0.00175116          9.57889          158.844       NO       
     PART-1-1.68993      0.000592341          12.8678          166.265       NO       
     PART-1-1.68994       0.00109059          8.98359          163.512       NO       
     PART-1-1.69029       0.00262423          10.2198          160.138       NO       
     PART-1-1.69031         0.015967          11.8818          153.301       NO       
     PART-1-1.69092       0.00151664          9.42375          159.637       NO       
     PART-1-1.69095       0.00187759          9.67553          161.059       NO       
     PART-1-1.69096      0.000440272          8.19265          164.917       NO       
     PART-1-1.69098       0.00352503           10.372          157.721       NO       
     PART-1-1.69102      0.000740391          10.9789          164.234       NO       
     PART-1-1.69105        0.0176716          12.8056          153.661       NO       
     PART-1-1.69134       0.00179072          9.81049          161.851       NO       
     PART-1-1.69137       0.00221866          15.4709          162.834       NO       
     PART-1-1.69139       0.00258638          9.99968          158.058       NO       
     PART-1-1.69146      0.000761426          8.68142          162.823       NO       
     PART-1-1.69216         0.019569          22.3233          151.337       NO       
     PART-1-1.69246      0.000733334          12.5023          163.292       NO       
     PART-1-1.69380      4.46479E-05          8.24922          170.666       NO       
     PART-1-1.69381      6.09902E-05          6.36097          168.805       NO       
     PART-1-1.69384      0.000218825          11.3255          168.221       NO       
     PART-1-1.69406        0.0195988          13.1817          153.246       NO       
     PART-1-1.69510       0.00331189          8.29743          167.697       NO       
     PART-1-1.69515        0.0177557          12.3643          157.867       NO       
     PART-1-1.69516       0.00205996          15.7685          162.262       NO       
     PART-1-1.69544       0.00191604          14.3304          159.439       NO       
     PART-1-1.69548       0.00333061          16.8805          160.488       NO       
     PART-1-1.69559        0.0043152          15.8557          155.366       NO       
     PART-1-1.69561       0.00307267          16.1869          161.887       NO       
     PART-1-1.69563        0.0186281          20.9177          153.759       NO       
     PART-1-1.69566        0.0197436          22.3943          151.078       NO       
     PART-1-1.69590       0.00301208          10.4407          158.866       NO       
     PART-1-1.69603       0.00262324          14.1431          158.358       NO       
     PART-1-1.69606       0.00634383          15.2044          156.563       NO       
     PART-1-1.69607        0.0189435          17.5684          152.989       NO       
     PART-1-1.69621      0.000468323          11.7772          164.772       NO       
     PART-1-1.69632       0.00359304          10.7718          158.364       NO       
     PART-1-1.69638       0.00796707          11.5176           158.28       NO       
     PART-1-1.69639        0.0116715          11.0126          154.584       NO       
     PART-1-1.69641        0.0106366          19.7958          156.263       NO       
     PART-1-1.69644       0.00356568          14.1923          159.093       NO       
     PART-1-1.69700        0.0033703          13.0418          160.305       NO       
     PART-1-1.69701       0.00496341          13.8238          158.053       NO       
     PART-1-1.69740        0.0073419          18.4303          158.431       NO       
     PART-1-1.69748       0.00357472          10.9868          157.944       NO       
     PART-1-1.69755        0.0141114          12.3813          151.417       NO       
     PART-1-1.69757       0.00318652          15.9799          156.652       NO       
     PART-1-1.69760       0.00556715           10.606          159.221       NO       
     PART-1-1.69765       0.00290119          16.6101          160.837       NO       
     PART-1-1.69924       2.2395E-18       0.00151178          179.995       NO       
     PART-1-1.69929        0.0118805          30.5678          149.778       NO       
     PART-1-1.69932      2.90096E-16       0.00100458          179.998       NO       
     PART-1-1.69986        0.0171149          16.6232          154.328       NO       
     PART-1-1.70001       0.00251587          10.1627          159.851       NO       
     PART-1-1.70003       0.00326435          15.9534          156.518       NO       
     PART-1-1.70005        0.0078752          19.1953          157.815       NO       
     PART-1-1.70007        0.0142828          12.7305          151.458       NO       
     PART-1-1.70099      0.000110801           9.2932          170.335       NO       
     PART-1-1.70100      9.64875E-05          6.68703          166.054       NO       
     PART-1-1.70102      0.000102798          8.40204          168.676       NO       
     PART-1-1.70139       0.00279327           13.096          160.728       NO       
     PART-1-1.70154       0.00747344          18.2088          157.385       NO       
     PART-1-1.70157       0.00608869          17.9047          159.178       NO       
     PART-1-1.70161       0.00551644          16.2075          154.081       NO       
     PART-1-1.70166       0.00340708          9.81989          159.703       NO       
     PART-1-1.70167        0.0026862          15.4723          161.789       NO       
     PART-1-1.70172       0.00193244          15.5937          162.501       NO       
     PART-1-1.70173      0.000926064          12.8166          165.495       NO       
     PART-1-1.70174       0.00233142           14.523          158.509       NO       
     PART-1-1.70185       0.00386334          13.4476          159.042       NO       
     PART-1-1.70241        0.0119786          19.2751          155.335       NO       
     PART-1-1.70242       0.00242994          15.1153          158.135       NO       
     PART-1-1.70243        0.0185528          20.9432          153.609       NO       
     PART-1-1.70247       0.00215932          10.3332          160.517       NO       
     PART-1-1.70365       0.00328008          14.5441          157.259       NO       
     PART-1-1.70369        0.0192823          21.6266          152.988       NO       
     PART-1-1.70434       0.00295715          10.5011          160.427       NO       
     PART-1-1.70437       0.00372902          16.8968          160.847       NO       
     PART-1-1.70446        0.0131114          21.3386          155.073       NO       
     PART-1-1.70450       0.00738084          17.3867          158.406       NO       
     PART-1-1.70454       0.00174052          11.5429           162.61       NO       
     PART-1-1.70456        0.0100408           12.094          155.535       NO       
     PART-1-1.70484        0.0183047          17.2882          153.494       NO       
     PART-1-1.70543       0.00258944          15.3139          157.844       NO       
     PART-1-1.70598       0.00721742          15.0598          155.598       NO       
     PART-1-1.70600        0.0034805          14.3195          157.121       NO       
     PART-1-1.70601       0.00242288          15.2019          163.215       NO       
     PART-1-1.70629        0.0106737          19.3714          155.086       NO       
     PART-1-1.70640       0.00498178          16.6276           160.41       NO       
     PART-1-1.70641       0.00413285          11.6121          156.283       NO       
     PART-1-1.70642       0.00374162          9.66366          161.569       NO       
     PART-1-1.70647        0.0092288          11.2089          153.266       NO       
     PART-1-1.70654       0.00269012           13.677          160.629       NO       
     PART-1-1.70716        0.0171024          12.3575          153.866       NO       
     PART-1-1.70759       0.00188992          15.2862          162.526       NO       
     PART-1-1.70760       0.00133877          13.9898          164.668       NO       
     PART-1-1.70831      0.000642045          12.2358          166.497       NO       
     PART-1-1.70845         0.016781          17.2754          153.349       NO       
     PART-1-1.70865      0.000774606          8.19845          163.695       NO       
     PART-1-1.70866        0.0013197          13.3179          161.088       NO       
     PART-1-1.70974        0.0178142          11.8679          153.288       NO       
     PART-1-1.70976       0.00356245          17.0232          161.182       NO       
     PART-1-1.70977       0.00326337          14.9895          157.045       NO       
     PART-1-1.71115       0.00164325          9.35791          159.656       NO       
     PART-1-1.71131      0.000174444          7.42836           165.96       NO       
     PART-1-1.71150        0.0118465          16.2468          155.555       NO       
     PART-1-1.71154       0.00253362          15.9036          162.328       NO       
     PART-1-1.71200       0.00308499          16.4554          160.739       NO       
     PART-1-1.71209        0.0165447          17.2544            153.5       NO       
     PART-1-1.71324       0.00339938          10.1256          158.658       NO       
     PART-1-1.71325       0.00334262          14.7958          157.061       NO       
     PART-1-1.71385        0.0161098          17.1128          153.948       NO       
     PART-1-1.71454       0.00040325          8.27537          165.008       NO       
     PART-1-1.71455      0.000498242          10.2428          165.526       NO       
     PART-1-1.71473       0.00113835          13.2899          161.595       NO       
     PART-1-1.71474       0.00292992          10.6628          159.943       NO       
     PART-1-1.71494       0.00152764          14.3336          163.533       NO       
     PART-1-1.71505         0.019982          22.1342          151.499       NO       
     PART-1-1.71508        0.0165328          19.7245          146.005       NO       
     PART-1-1.71522      0.000625861           8.5631          162.094       NO       
     PART-1-1.71525      0.000471987          12.3457          167.301       NO       
     PART-1-1.71644       0.00306238          15.8858           161.22       NO       
     PART-1-1.71646        0.0059972          16.4738          153.544       NO       
     PART-1-1.71660       0.00220706            9.666          161.118       NO       
     PART-1-1.71668      0.000470033          11.6653           164.82       NO       
     PART-1-1.71696      0.000177655          7.00178          167.564       NO       
     PART-1-1.71697      0.000206749          10.2606          169.482       NO       
     PART-1-1.71734        0.0191805          13.7332           152.53       NO       
     PART-1-1.71780      0.000653649          13.2055           165.75       NO       
     PART-1-1.72143        0.0153887          26.6183          150.378       NO       
     PART-1-1.72475         0.016033          24.9947          149.184       NO       
     PART-1-1.72837        0.0131575          25.8133          151.762       NO       
     PART-1-1.72838        0.0127742          24.3404          152.052       NO       
     PART-1-1.72948       0.00866702          23.5114          154.611       NO       
     PART-1-1.73352         0.013884          24.7206          151.621       NO       
     PART-1-1.73365        0.0170857          27.1433          149.711       NO       
     PART-1-1.73400       0.00927984          23.3573          153.838       NO       
     PART-1-1.73459        0.0145573          26.0697          150.812       NO       
     PART-1-1.73630        0.0145899          26.2569          151.521       NO       
     PART-1-1.73876        0.0184141          25.6122          148.192       NO       
     PART-1-1.74110        0.0139623          24.5553          151.331       NO       
     PART-1-1.74628       0.00634812          5.81226           163.29       NO       
     PART-1-1.75301        0.0064586           27.485          133.681       NO       
     PART-1-1.75363        0.0166346          26.3164           151.91       NO       
     PART-1-1.75485        0.0124122           25.413          151.799       NO       
  
  
 --------------------------------------------------------------------------------
 Elements with small volume
  
      Element       Adjusted nodes 
 ------------------ -------------- 
         PART-1-1.5       NO       
         PART-1-1.8       NO       
        PART-1-1.14       NO       
        PART-1-1.29       NO       
        PART-1-1.50       NO       
        PART-1-1.90       NO       
       PART-1-1.488       NO       
       PART-1-1.506       NO       
       PART-1-1.513       NO       
       PART-1-1.527       NO       
       PART-1-1.528       NO       
       PART-1-1.531       NO       
       PART-1-1.559       NO       
       PART-1-1.630       NO       
       PART-1-1.658       NO       
       PART-1-1.699       NO       
       PART-1-1.831       NO       
      PART-1-1.1082       NO       
      PART-1-1.1100       NO       
      PART-1-1.1286       NO       
      PART-1-1.1367       NO       
      PART-1-1.1447       NO       
      PART-1-1.1856       NO       
      PART-1-1.1858       NO       
      PART-1-1.2095       NO       
      PART-1-1.2525       NO       
      PART-1-1.2780       NO       
      PART-1-1.2799       NO       
      PART-1-1.2811       NO       
      PART-1-1.2818       NO       
      PART-1-1.2880       NO       
      PART-1-1.2990       NO       
     PART-1-1.58739       NO       
     PART-1-1.66173       NO       
     PART-1-1.69931       NO       
  
  *Step, name=Step-1, nlgeom=NO, perturbation
  *output, field, variable=PRESELECT
  *Step, name=Step-1, nlgeom=NO, perturbation

 ***ERROR: NODE SET ASSEMBLY_BOTTOM_SET_PIN HAS NOT BEEN DEFINED

 ***ERROR: NODE SET ASSEMBLY_BOTTOM_SET_PIN HAS NOT BEEN DEFINED

 ***ERROR: NODE SET ASSEMBLY_TOP_SET_PIN HAS NOT BEEN DEFINED

 ***ERROR: NODE SET ASSEMBLY_TOP_SET_PIN HAS NOT BEEN DEFINED

 ***ERROR: NODE SET ASSEMBLY_TOP_SET_PIN HAS NOT BEEN DEFINED

 ***ERROR: NODE SET ASSEMBLY_TOP_SET_PIN HAS NOT BEEN DEFINED
  *Step, name=Step-1, nlgeom=NO, perturbation
  *buckle
  *boundary, op=NEW, loadcase=1
  *boundary, op=NEW, loadcase=2
  *boundary, op=NEW, loadcase=1
  *boundary, op=NEW, loadcase=2
  *dsload

 ***ERROR: THE SURFACE ASSEMBLY_TOP_SURFACE HAS NOT BEEN LOCATED
 LINE IMAGE: ASSEMBLY_TOP_SURFACE, P, 1.
  *output, field, variable=PRESELECT
  *endstep
  *Step, name=Step-1, nlgeom=NO, perturbation
  *buckle
  *buckle
  *boundary, op=NEW, loadcase=1

 ***ERROR: A BOUNDARY CONDITION HAS BEEN SPECIFIED ON NODE SET 
           ASSEMBLY_BOTTOM_SET_PIN BUT THIS NODE SET IS NOT ACTIVE IN THE MODEL
  *boundary, op=NEW, loadcase=2

 ***ERROR: A BOUNDARY CONDITION HAS BEEN SPECIFIED ON NODE SET 
           ASSEMBLY_BOTTOM_SET_PIN BUT THIS NODE SET IS NOT ACTIVE IN THE MODEL
  *boundary, op=NEW, loadcase=1

 ***ERROR: A BOUNDARY CONDITION HAS BEEN SPECIFIED ON NODE SET 
           ASSEMBLY_TOP_SET_PIN BUT THIS NODE SET IS NOT ACTIVE IN THE MODEL

 ***ERROR: A BOUNDARY CONDITION HAS BEEN SPECIFIED ON NODE SET 
           ASSEMBLY_TOP_SET_PIN BUT THIS NODE SET IS NOT ACTIVE IN THE MODEL
  *boundary, op=NEW, loadcase=2

 ***ERROR: A BOUNDARY CONDITION HAS BEEN SPECIFIED ON NODE SET 
           ASSEMBLY_TOP_SET_PIN BUT THIS NODE SET IS NOT ACTIVE IN THE MODEL

 ***ERROR: A BOUNDARY CONDITION HAS BEEN SPECIFIED ON NODE SET 
           ASSEMBLY_TOP_SET_PIN BUT THIS NODE SET IS NOT ACTIVE IN THE MODEL
  *endstep

 ***ERROR: NODE SET ASSEMBLY_BOTTOM_SET_PIN HAS NOT BEEN DEFINED

 ***ERROR: NODE SET ASSEMBLY_BOTTOM_SET_PIN HAS NOT BEEN DEFINED

 ***ERROR: NODE SET ASSEMBLY_TOP_SET_PIN HAS NOT BEEN DEFINED

 ***ERROR: NODE SET ASSEMBLY_TOP_SET_PIN HAS NOT BEEN DEFINED

 ***ERROR: NODE SET ASSEMBLY_TOP_SET_PIN HAS NOT BEEN DEFINED

 ***ERROR: NODE SET ASSEMBLY_TOP_SET_PIN HAS NOT BEEN DEFINED



                            P R O B L E M   S I Z E


          NUMBER OF ELEMENTS IS                                 75860
          NUMBER OF ELEMENTS DEFINED BY THE USER AND *TIE       75858
          NUMBER OF NODES IS                                    33972
          NUMBER OF NODES DEFINED BY THE USER                   33972
          TOTAL NUMBER OF VARIABLES IN THE MODEL               101922
          (DEGREES OF FREEDOM PLUS MAX NO. OF ANY LAGRANGE MULTIPLIER
           VARIABLES. INCLUDE *PRINT,SOLVE=YES TO GET THE ACTUAL NUMBER.)





          THE PROGRAM HAS DISCOVERED    41 FATAL ERRORS

               ** EXECUTION IS TERMINATED **

 ***ERROR: Failed to locate set "ASSEMBLY_TOP_SET_PIN".



                              END OF USER INPUT PROCESSING



     JOB TIME SUMMARY
       USER TIME (SEC)      =   2.9000    
       SYSTEM TIME (SEC)    =   1.0000    
       TOTAL CPU TIME (SEC) =   3.9000    
       WALLCLOCK TIME (SEC) =          5
