*Heading
** Job name: Buckling_job_7_3 Model name: Model-1
** Generated by: Abaqus/CAE 2019
*Preprint, echo=NO, model=NO, history=NO, contact=NO
**
** PARTS
**
*Part, name=Part-1
*Node
      1,        1524.,  -34.9225616,   126.518166
      2,       -1524.,  -1456.22827,   126.518166
      3,        1524.,  -34.9263916,   127.477287
      4,        1524.,  -33.9762497,   127.755676
      5,        1524.,  -33.3594589,   127.002975
      6,        1524.,  -33.9705276,   126.245934
      7,       -1524.,  -1455.27625,   126.245934
      8,       -1524.,  -1454.66516,   127.002975
      9,       -1524.,  -1455.28198,   127.755676
     10,       -1524.,  -1456.23218,   127.477287
     11,   -1523.0033,  -1454.81152,   126.245926
     12,   -1523.0033,  -1454.20044,   127.002975
     13,   -1523.0033,  -1454.81726,   127.755684
     14,   -1523.0033,  -1455.76733,   127.477303
     15,   -1523.0033,  -1455.76355,   126.518173
     16,  -1522.00659,  -1454.34668,   126.245941
     17,  -1522.00659,   -1453.7356,   127.002975
     18,  -1522.00659,  -1454.35242,   127.755669
     19,  -1522.00659,  -1455.30261,    127.47728
     20,  -1522.00659,  -1455.29871,   126.518143
** ... 16851 like lines cut
*Element, type=C3D4
    1, 15296, 15297, 11174, 11173
    2, 15296, 11174, 11175, 11179
    3, 15297, 11171, 11172, 15296
    4, 11167, 15297, 11171, 11172
    5, 15296, 11177, 11172, 11173
    6, 15296, 11175, 11171, 11180
    7,  3404,  3403,  3409,  3405
    8, 15298,  3422,  3426,  3421
    9, 14146, 14151, 14147, 14155
   10, 15299, 14011, 14007, 14012
   11, 10067, 10062, 10066, 15300
   12,   572,   568, 15301,   573
   13, 11575, 11570, 11574, 15302
   14,  5348,  5350, 15303,  5349
   15,  2510,  2502,  2506,  2501
   16,  3550,  3543,  3546,  3542
   17,  3663,  3665, 15304,  3664
   18,  8253,  8255,  8251, 15305
   19,   129,   128,   134,   130
   20,   194,   189, 15306,   190
** ... 39526 like lines cut
*Nset, nset=fibre_set4, generate
     1,  16871,      1
*Elset, elset=fibre_set4, generate
     1,  39546,      1
** Section: fibre_section
*Solid Section, elset=fibre_set4, material=fibre_material
,
*End Part
**  
**
** ASSEMBLY
**
*Assembly, name=Assembly
**  
*Instance, name=Part-1-1, part=Part-1
*End Instance
**  
*Node
      1,           0.,        1524.,         127.
*Node
      2,           0.,       -1524.,         127.
*Nset, nset=_PickedSet19, internal
 1,
*Nset, nset=_PickedSet21, internal
 2,
** Constraint: Constraint-1
*Rigid Body, ref node=_PickedSet19, pin nset=top_set_pin
** Constraint: Constraint-2
*Rigid Body, ref node=_PickedSet21, pin nset=bottom_set_pin
*End Assembly
** 
** MATERIALS
** 
*Material, name=fibre_material
*Elastic
121000., 0.34
*Material, name=matrix_material
*Elastic
 997.548, 0.29
** ----------------------------------------------------------------
** 
** STEP: Step-1
** 
*Step, name=Step-1, nlgeom=NO, perturbation
*Buckle
3, , 6, 300
** 
** BOUNDARY CONDITIONS
** 
** Name: BC-1 Type: Symmetry/Antisymmetry/Encastre
*Boundary, op=NEW, load case=1
bottom_set_pin, ENCASTRE
*Boundary, op=NEW, load case=2
bottom_set_pin, ENCASTRE
** Name: BC-2 Type: Displacement/Rotation
*Boundary, op=NEW, load case=1
top_set_pin, 1, 1
top_set_pin, 3, 3
*Boundary, op=NEW, load case=2
top_set_pin, 1, 1
top_set_pin, 3, 3
** 
** LOADS
** 
** Name: Load-1   Type: Pressure
*Dsload
top_surface, P, 1.
** 
** OUTPUT REQUESTS
** 
*Restart, write, frequency=0
** 
** FIELD OUTPUT: F-Output-1
** 
*Output, field, variable=PRESELECT
*End Step
