1

   Abaqus 3DEXPERIENCE R2019x                                  Date 02-May-2020   Time 00:07:34
   For use by TEXAS A_M UNIVERSITY SYSTEM under license from Dassault Systemes or its subsidiary.



                         The Abaqus Software is a product of:

                           Dassault Systemes SIMULIA Corp.
                           1301 Atwood Avenue, Suite 101W
                              Johnston, RI 02919, USA
 


                   The Abaqus Software is available only under license
                   from Dassault Systemes or its subsidiary and may be
                   used or reproduced only in accordance with the terms
                   of such license.
 
                          On machine AERO-MJ09CBE4 
                          you are authorized to run
                          Abaqus/Standard until 11-Jul-2021

                          Your site id is: 200000000002185 


 
                    For assistance or any other information you may
                    obtain contact information for your local office
                    from the world wide web at:

                      http://www.3ds.com/products/simulia/locations/

 
                * * * * * * * * * * * * * * * * * * * * * * * * * * * * * * 
                *                                                         * 
                *                   *****************                     * 
                *                   *  N O T I C E  *                     * 
                *                   *****************                     * 
                *                                                         * 
                *                                                         * 
                *               Abaqus 3DEXPERIENCE R2019x                * 
                *                                                         * 
                *          BUILD ID: 2018_09_24-13.41.51 157541           * 
                *                                                         * 
                *                                                         * 
                *  Please make sure you are using                         * 
                *  release 3DEXPERIENCE R2019x manuals                    * 
                *  plus the notes accompanying this release.              * 
                *                                                         * 
                *                                                         * 
                *                                                         * 
                *                                                         * 
                *                                                         * 
                *   This program may not be used for commercial purposes  * 
                *           without payment of a commercial fee.          * 
                *                                                         * 
                * * * * * * * * * * * * * * * * * * * * * * * * * * * * * * 


 



     PROCESSING PART, INSTANCE, AND ASSEMBLY INFORMATION
   *******************************************************


 ***ERROR: in keyword *RIGIDBODY, file "Buckling_job_3_1.inp", line 116403: 
           Unknown assembly set TOP_SET_PIN
 ***NOTE: DUE TO AN INPUT ERROR THE ANALYSIS PRE-PROCESSOR HAS BEEN UNABLE TO 
          INTERPRET SOME DATA.  SUBSEQUENT ERRORS MAY BE CAUSED BY THIS OMISSION

 ***ERROR: in keyword *RIGIDBODY, file "Buckling_job_3_1.inp", line 116405: 
           Unknown assembly set BOTTOM_SET_PIN

 ***ERROR: in keyword *BOUNDARY, file "Buckling_job_3_1.inp", line 116427: 
           Unknown assembly node set BOTTOM_SET_PIN

 ***ERROR: in keyword *BOUNDARY, file "Buckling_job_3_1.inp", line 116429: 
           Unknown assembly node set BOTTOM_SET_PIN

 ***ERROR: in keyword *BOUNDARY, file "Buckling_job_3_1.inp", line 116432: 
           Unknown assembly node set TOP_SET_PIN

 ***ERROR: in keyword *BOUNDARY, file "Buckling_job_3_1.inp", line 116432: 
           Unknown assembly node set TOP_SET_PIN

 ***ERROR: in keyword *BOUNDARY, file "Buckling_job_3_1.inp", line 116435: 
           Unknown assembly node set TOP_SET_PIN

 ***ERROR: in keyword *BOUNDARY, file "Buckling_job_3_1.inp", line 116435: 
           Unknown assembly node set TOP_SET_PIN

     END PROCESSING PART, INSTANCE, AND ASSEMBLY INFORMATION
   ***********************************************************




     OPTIONS BEING PROCESSED
   ***************************


  *Heading
  *Node
  *Element, type=C3D4
  *Nset, nset=ASSEMBLY_PART-1-1_FIBRE_SET2
  *Nset, nset=ASSEMBLY_PART-1-1_FIBRE_SET3
  *Nset, nset=ASSEMBLY_PART-1-1_FIBRE_SET4
  *Nset, nset=ASSEMBLY_PART-1-1_FIBRE_SET5
  *Elset, elset=ASSEMBLY_PART-1-1_FIBRE_SET2
  *Elset, elset=ASSEMBLY_PART-1-1_FIBRE_SET3
  *Elset, elset=ASSEMBLY_PART-1-1_FIBRE_SET4
  *Elset, elset=ASSEMBLY_PART-1-1_FIBRE_SET5
  *Node
  *Nset, nset=ASSEMBLY__PICKEDSET19
  *Nset, nset=ASSEMBLY__PICKEDSET21

 ***WARNING: BUCKLE OPTION IS NOT SUPPORTED FOR ELEMENT LOOP PARALLELIZATION. 
             IF YOU HAVE SPECIFIED ELEMENT LOOP PARALLELIZATION, IT WILL BE 
             TURNED OFF FOR THIS ANALYSIS.
 LINE IMAGE: *buckle
  *material, name=FIBRE_MATERIAL
  *elastic
  *material, name=MATRIX_MATERIAL
  *elastic
  *solidsection, elset=ASSEMBLY_PART-1-1_FIBRE_SET2, material=FIBRE_MATERIAL
  *solidsection, elset=ASSEMBLY_PART-1-1_FIBRE_SET3, material=FIBRE_MATERIAL
  *solidsection, elset=ASSEMBLY_PART-1-1_FIBRE_SET4, material=FIBRE_MATERIAL
  *solidsection, elset=ASSEMBLY_PART-1-1_FIBRE_SET5, material=FIBRE_MATERIAL
  *solidsection, elset=ASSEMBLY_PART-1-1_FIBRE_SET2, material=FIBRE_MATERIAL
  *solidsection, elset=ASSEMBLY_PART-1-1_FIBRE_SET3, material=FIBRE_MATERIAL
  *solidsection, elset=ASSEMBLY_PART-1-1_FIBRE_SET4, material=FIBRE_MATERIAL
  *solidsection, elset=ASSEMBLY_PART-1-1_FIBRE_SET5, material=FIBRE_MATERIAL
  *rigidbody, refnode=ASSEMBLY__PICKEDSET19, pinnset=ASSEMBLY_TOP_SET_PIN
  *rigidbody, refnode=ASSEMBLY__PICKEDSET21, pinnset=ASSEMBLY_BOTTOM_SET_PIN
  *rigidbody, refnode=ASSEMBLY__PICKEDSET19, pinnset=ASSEMBLY_TOP_SET_PIN
  *rigidbody, refnode=ASSEMBLY__PICKEDSET21, pinnset=ASSEMBLY_BOTTOM_SET_PIN
  *rigidbody, refnode=ASSEMBLY__PICKEDSET19, pinnset=ASSEMBLY_TOP_SET_PIN
  *rigidbody, refnode=ASSEMBLY__PICKEDSET21, pinnset=ASSEMBLY_BOTTOM_SET_PIN
  *rigidbody, refnode=ASSEMBLY__PICKEDSET19, pinnset=ASSEMBLY_TOP_SET_PIN

 ***ERROR: NODE SET ASSEMBLY_TOP_SET_PIN HAS NOT BEEN DEFINED
  *rigidbody, refnode=ASSEMBLY__PICKEDSET21, pinnset=ASSEMBLY_BOTTOM_SET_PIN

 ***ERROR: NODE SET ASSEMBLY_BOTTOM_SET_PIN HAS NOT BEEN DEFINED
  *rigidbody, refnode=ASSEMBLY__PICKEDSET19, pinnset=ASSEMBLY_TOP_SET_PIN

 ***ERROR: NODE SET ASSEMBLY_TOP_SET_PIN HAS NOT BEEN DEFINED

 ***ERROR: UNABLE TO LOCATE NODE SET ASSEMBLY_TOP_SET_PIN. THE NODE SET MUST 
           HAVE BEEN PREVIOUSLY DEFINED. NODES IN THIS NODE SET WILL NOT BE 
           PART OF RIGID BODY
 LINE IMAGE: *rigidbody, refnode=ASSEMBLY__PICKEDSET19, 
             pinnset=ASSEMBLY_TOP_SET_PIN
  *rigidbody, refnode=ASSEMBLY__PICKEDSET21, pinnset=ASSEMBLY_BOTTOM_SET_PIN

 ***ERROR: NODE SET ASSEMBLY_BOTTOM_SET_PIN HAS NOT BEEN DEFINED

 ***ERROR: UNABLE TO LOCATE NODE SET ASSEMBLY_BOTTOM_SET_PIN. THE NODE SET MUST 
           HAVE BEEN PREVIOUSLY DEFINED. NODES IN THIS NODE SET WILL NOT BE 
           PART OF RIGID BODY
 LINE IMAGE: *rigidbody, refnode=ASSEMBLY__PICKEDSET21, 
             pinnset=ASSEMBLY_BOTTOM_SET_PIN

 ***ERROR: SURFACE DEFINITION ASSEMBLY_TOP_SURFACE NOT FOUND.
  *rigidbody, refnode=ASSEMBLY__PICKEDSET19, pinnset=ASSEMBLY_TOP_SET_PIN
  *rigidbody, refnode=ASSEMBLY__PICKEDSET21, pinnset=ASSEMBLY_BOTTOM_SET_PIN
  *rigidbody, refnode=ASSEMBLY__PICKEDSET19, pinnset=ASSEMBLY_TOP_SET_PIN

 ***ERROR: NODE SET ASSEMBLY_TOP_SET_PIN HAS NOT BEEN DEFINED

 ***ERROR: UNABLE TO LOCATE NODE SET ASSEMBLY_TOP_SET_PIN. THE NODE SET MUST 
           HAVE BEEN PREVIOUSLY DEFINED. NODES IN THIS NODE SET WILL NOT BE 
           PART OF RIGID BODY
 LINE IMAGE: *rigidbody, refnode=ASSEMBLY__PICKEDSET19, 
             pinnset=ASSEMBLY_TOP_SET_PIN
  *rigidbody, refnode=ASSEMBLY__PICKEDSET21, pinnset=ASSEMBLY_BOTTOM_SET_PIN

 ***ERROR: NODE SET ASSEMBLY_BOTTOM_SET_PIN HAS NOT BEEN DEFINED

 ***ERROR: UNABLE TO LOCATE NODE SET ASSEMBLY_BOTTOM_SET_PIN. THE NODE SET MUST 
           HAVE BEEN PREVIOUSLY DEFINED. NODES IN THIS NODE SET WILL NOT BE 
           PART OF RIGID BODY
 LINE IMAGE: *rigidbody, refnode=ASSEMBLY__PICKEDSET21, 
             pinnset=ASSEMBLY_BOTTOM_SET_PIN
  *boundary, op=NEW, loadcase=1
  *boundary, op=NEW, loadcase=2
  *boundary, op=NEW, loadcase=1
  *boundary, op=NEW, loadcase=2
  *boundary, op=NEW, loadcase=1
  *boundary, op=NEW, loadcase=2
  *boundary, op=NEW, loadcase=1
  *boundary, op=NEW, loadcase=2
  *rigidbody, refnode=ASSEMBLY__PICKEDSET19, pinnset=ASSEMBLY_TOP_SET_PIN
  *rigidbody, refnode=ASSEMBLY__PICKEDSET21, pinnset=ASSEMBLY_BOTTOM_SET_PIN
  *output, field, variable=PRESELECT
  *output, field, variable=PRESELECT
  *output, field, variable=PRESELECT

 ***ERROR: NODE SET ASSEMBLY_TOP_SET_PIN HAS NOT BEEN DEFINED

 ***ERROR: NODE SET ASSEMBLY_BOTTOM_SET_PIN HAS NOT BEEN DEFINED
  
                               E L E M E N T   Q U A L I T Y  C H E C K S        
  
  
 ***NOTES: DISTORTED ISOPARAMETRIC ELEMENTS: ANGLE BETWEEN ISOPARAMETRIC LINES 
           IS LESS THAN 45 DEGREES OR GREATER THAN 135 DEGREES.
  
           TETRAHEDRAL QUALITY MEASURE: VOLUME OF TETRAHEDRON DIVIDED BY THE 
           VOLUME OF EQUILATERAL TETRAHEDRON WITH SAME CIRCUMSPHERE RADIUS; 
           0 FOR DEGENERATE TETRAHEDRON AND 1 FOR EQUILATERIAL TETRAHEDRON. IT 
           IS RECOMMENDED THAT THE TETRAHEDRAL QUALITY MEASURE BE GREATER THAN 
           0.02, THE MIN INTERIOR (DIHEDRAL) ANGLE BE GREATER THAN 10 DEGREES, 
           AND THE MAX INTERIOR (DIHEDRAL) ANGLE BE LESS THAN 160 DEGREES. 
  
           MODIFIED TETRAHEDRAL QUALITY MEASURE: ANGLES BETWEEN THE TWO LINE 
           SEGMENTS ON EACH EDGE; THE EDGES OF MODIFIED TETRAHEDRAL SHOULD BE 
           AS STRAIGHT AS POSSIBLE. IT IS RECOMMENDED THAT THE ANGLE BETWEEN 
           THE TWO LINE SEGMENTS ON EACH EDGE IS BETWEEN 160 AND 180 DEGREES. 
  
           TRIANGULAR QUALITY MEASURE: AREA OF TRIANGLE DIVIDED BY THE AREA OF 
           EQUILATERAL TRIANGLE WITH SAME CIRCUMCIRCLE RADIUS; 0 FOR DEGENERATE 
           TRIANGLE AND 1 FOR EQUILATERAL TRIANGLE. IT IS RECOMMENDED THAT THE
           TRIANGULAR QUALITY MEASURE BE GREATER THAN 0.01, THE MIN INTERIOR 
           ANGLE BE GREATER THAN 10 DEGREES, AND THE MAX INTERIOR ANGLE BE LESS 
           THAN 160 DEGREES. 
  
           NODAL ADJUSTMENTS ARISING FROM CONTACT INTERACTIONS AND/OR TIE 
           CONSTRAINTS CAN CAUSE SEVERE ELEMENT DISTORTION. IT MAY BE NECESSARY 
           TO REMESH IN ORDER TO REDUCE THE AMOUNT OF ADJUSTMENT. 

 ***WARNING: 6386 elements are distorted. Either the isoparametric angles are 
             out of the suggested limits or the triangular or tetrahedral 
             quality measure is bad. The elements have been identified in 
             element set WarnElemDistorted.

 ***ERROR: The volume of 18 elements is zero, small, or negative. Check 
           coordinates or node numbering, or modify the mesh seed. In the case 
           of a tetrahedron this error may indicate that all nodes are located 
           very nearly in a plane. The elements have been identified in element 
           set ErrElemVolSmallNegZero.
  
 --------------------------------------------------------------------------------
 Distorted tetrahedral elements
  
      Element       Quality measure     Min angle        Max angle     Adjusted nodes 
 ------------------ ---------------- ---------------- ---------------- -------------- 
         PART-1-1.4      3.90749E-05          6.05546          169.095       NO       
        PART-1-1.60       0.00061224          10.5652          165.124       NO       
        PART-1-1.84      0.000703042          8.70953          162.717       NO       
        PART-1-1.92        0.0145379          11.9589           154.37       NO       
       PART-1-1.101        0.0010165          8.54796          162.974       NO       
       PART-1-1.107       0.00199175          9.93968          161.157       NO       
       PART-1-1.127      0.000700778          8.90109          162.787       NO       
       PART-1-1.135      9.60267E-05          9.42054          168.911       NO       
       PART-1-1.139      4.88008E-05          8.10009           171.86       NO       
       PART-1-1.141      2.26101E-05           7.7204          172.462       NO       
       PART-1-1.165       0.00292803          17.1642          160.733       NO       
       PART-1-1.179      0.000135388          9.78529          169.852       NO       
       PART-1-1.190       0.00125704          8.86314          162.582       NO       
       PART-1-1.193      4.28759E-05          7.08104          170.648       NO       
       PART-1-1.195       0.00419309          9.57615           159.85       NO       
       PART-1-1.208       0.00105434          8.89288          163.903       NO       
       PART-1-1.219      0.000189371           9.7138          169.523       NO       
       PART-1-1.220       0.00478928          13.5767          157.982       NO       
       PART-1-1.224      0.000156566          7.15556          166.593       NO       
       PART-1-1.231       0.00262679          15.3217          161.975       NO       
       PART-1-1.235       0.00299485           15.574          162.392       NO       
       PART-1-1.258      0.000312872          7.95435          164.844       NO       
       PART-1-1.261       0.00340036          10.6896           158.42       NO       
       PART-1-1.272      0.000536408          11.8536          166.975       NO       
       PART-1-1.273       0.00116808          13.2231          161.504       NO       
       PART-1-1.283       0.00263374          15.0701          162.064       NO       
       PART-1-1.299       0.00263648          15.7164          161.735       NO       
       PART-1-1.357       0.00698599          16.3046          152.907       NO       
       PART-1-1.358       0.00295655          15.6319          161.355       NO       
       PART-1-1.360      1.63375E-05          7.23843          172.159       NO       
       PART-1-1.362      8.73109E-06          6.13144          174.122       NO       
       PART-1-1.369       4.0385E-05          7.64624          172.289       NO       
       PART-1-1.371      6.23852E-05          6.71604          168.459       NO       
       PART-1-1.372      6.92544E-05          9.34233          170.986       NO       
       PART-1-1.373      8.32414E-05          6.92521          165.435       NO       
       PART-1-1.374      4.17722E-05          8.69209          170.544       NO       
       PART-1-1.375        9.933E-05          9.60639          169.947       NO       
       PART-1-1.376      0.000607454          13.3029          166.328       NO       
       PART-1-1.377      0.000417575          10.0521          166.188       NO       
       PART-1-1.378      7.17795E-05          9.52962          169.362       NO       
       PART-1-1.379      0.000607202          7.70907          164.804       NO       
       PART-1-1.380      0.000746605           13.388          162.809       NO       
       PART-1-1.384       0.00100084          13.3956          165.682       NO       
       PART-1-1.392       0.00132328          14.2417          164.146       NO       
       PART-1-1.397       0.00205539          15.5014          162.349       NO       
       PART-1-1.405      4.18985E-05           7.7393          172.231       NO       
       PART-1-1.406        0.0108097          10.9977          154.994       NO       
       PART-1-1.408       0.00648539          19.4738          157.924       NO       
       PART-1-1.409      0.000284308          8.30867          165.381       NO       
       PART-1-1.410       0.00343648          16.8651          161.099       NO       
       PART-1-1.411       0.00114593          9.09933           163.44       NO       
       PART-1-1.413      0.000643622          7.76877          164.514       NO       
       PART-1-1.414      0.000325987          11.9656          167.884       NO       
       PART-1-1.415      0.000232936          7.73332          164.261       NO       
       PART-1-1.417        0.0051831          12.1166          157.208       NO       
       PART-1-1.418      0.000676061          8.72613          162.714       NO       
       PART-1-1.421      0.000196992          11.0064          168.826       NO       
       PART-1-1.422      9.12841E-05          7.90424          168.992       NO       
       PART-1-1.423       0.00105513          11.1761          163.136       NO       
       PART-1-1.441       0.00112509           13.673          165.234       NO       
       PART-1-1.444       0.00266845          10.5485          159.709       NO       
       PART-1-1.447       0.00374753          13.8103          159.341       NO       
       PART-1-1.449        0.0162301          20.6585          153.726       NO       
       PART-1-1.453       0.00219299          15.1891           158.53       NO       
       PART-1-1.462        0.0157482           20.891          154.104       NO       
       PART-1-1.463       0.00338385          10.1081          159.047       NO       
       PART-1-1.465         0.015009          12.9832          154.851       NO       
       PART-1-1.466       0.00372995          13.7006          159.106       NO       
       PART-1-1.469       0.00230097          10.9794          159.815       NO       
       PART-1-1.470       0.00810654          12.1822          152.072       NO       
       PART-1-1.482        0.0048397          13.3358          158.308       NO       
       PART-1-1.488        0.0166502          11.3535          154.332       NO       
       PART-1-1.489       0.00292588          10.2605          159.594       NO       
       PART-1-1.490       0.00288103          14.4339          157.846       NO       
       PART-1-1.491       0.00645967          15.1986          156.603       NO       
       PART-1-1.493       0.00365611          17.1832          161.115       NO       
       PART-1-1.495        0.0190315           21.669          151.507       NO       
       PART-1-1.500        0.0130862          20.6536          154.423       NO       
       PART-1-1.504        0.0104426          19.8096          156.313       NO       
       PART-1-1.507        0.0114009          11.0557          154.636       NO       
       PART-1-1.508       0.00303527           10.402          158.349       NO       
       PART-1-1.509       0.00333487          13.9931          159.348       NO       
       PART-1-1.510       0.00785654          11.5778          158.154       NO       
       PART-1-1.523       0.00153645          11.8202          163.099       NO       
       PART-1-1.531      0.000254104          7.84785          165.177       NO       
       PART-1-1.535      8.77979E-05          9.24565          169.125       NO       
       PART-1-1.569       0.00015423          7.35496          166.975       NO       
       PART-1-1.570      0.000181492          8.93117            167.8       NO       
       PART-1-1.573      0.000436728           12.198          166.815       NO       
       PART-1-1.575       0.00280372          16.9748          161.409       NO       
       PART-1-1.576       0.00241819          10.5471          159.982       NO       
       PART-1-1.579      0.000175773          10.6173          169.455       NO       
       PART-1-1.590       0.00381245          10.0997          159.079       NO       
       PART-1-1.593      0.000649205          12.9908          166.388       NO       
       PART-1-1.595      0.000556335          12.8401          166.334       NO       
       PART-1-1.596       0.00409315          13.6638          158.854       NO       
       PART-1-1.597      0.000165717           6.8877          166.808       NO       
       PART-1-1.598      0.000549533          8.73611          164.334       NO       
       PART-1-1.599      0.000598711          8.59064           161.95       NO       
       PART-1-1.601      0.000226143          9.14909          167.163       NO       
       PART-1-1.602      2.54652E-05          5.80269          170.119       NO       
       PART-1-1.603      2.10768E-05           6.9731          173.111       NO       
       PART-1-1.607      2.79607E-05          7.97313          172.467       NO       
       PART-1-1.608      3.16731E-05          5.99303          167.656       NO       
       PART-1-1.611      2.57509E-05          6.70837           171.27       NO       
       PART-1-1.612      0.000173084          9.76855          169.647       NO       
       PART-1-1.613       0.00015974          7.53436           166.69       NO       
       PART-1-1.614       0.00016385          8.85208          168.042       NO       
       PART-1-1.615      0.000113941          9.90991          168.537       NO       
       PART-1-1.616      0.000181144          10.8293          169.287       NO       
       PART-1-1.617       0.00049327          12.4816          166.728       NO       
       PART-1-1.618       0.00633157          10.3492          158.711       NO       
       PART-1-1.619         0.002395          12.9698          161.172       NO       
       PART-1-1.620       0.00481267            16.63          159.492       NO       
       PART-1-1.621       0.00972758          18.8302          156.143       NO       
       PART-1-1.629       0.00287092          13.1875           160.49       NO       
       PART-1-1.641        0.0121168          19.5096          155.284       NO       
       PART-1-1.642       0.00321238          15.8664          161.158       NO       
       PART-1-1.643       0.00411498          9.89573          159.249       NO       
       PART-1-1.645      0.000894602          13.8597          165.359       NO       
       PART-1-1.646      0.000666864           13.315          165.892       NO       
       PART-1-1.648      0.000293037          9.50546          166.592       NO       
       PART-1-1.649      0.000698386          8.67288          161.887       NO       
       PART-1-1.651       6.0002E-05          6.44463          166.991       NO       
       PART-1-1.652      0.000755356          9.30056          163.313       NO       
       PART-1-1.653      2.97511E-05          7.70707          171.326       NO       
       PART-1-1.654      0.000267058          9.37188          166.685       NO       
       PART-1-1.655      7.66531E-05          6.80451          168.342       NO       
       PART-1-1.656      1.79057E-05          6.88551          173.315       NO       
       PART-1-1.657      6.98516E-05          9.43683           170.63       NO       
       PART-1-1.658       3.6632E-05          7.00329          170.563       NO       
       PART-1-1.660      0.000428073          8.51907          164.738       NO       
       PART-1-1.661      0.000392716           9.7843          166.337       NO       
       PART-1-1.662      0.000500703           12.579          167.021       NO       
       PART-1-1.663       0.00112652          13.6627          164.459       NO       
       PART-1-1.664        0.0117471          15.5394          155.738       NO       
       PART-1-1.665        0.0124141          12.9813          154.669       NO       
       PART-1-1.667        0.0162125          22.3595          153.478       NO       
       PART-1-1.683       0.00583612          11.3194          155.665       NO       
       PART-1-1.684       0.00296305          16.0881           161.64       NO       
       PART-1-1.686      0.000900079          10.8522          163.913       NO       
       PART-1-1.692      0.000136766           9.5698          170.106       NO       
       PART-1-1.709         0.001194          8.62524          162.498       NO       
       PART-1-1.748      0.000636238          12.9855          166.582       NO       
       PART-1-1.749       0.00190298          9.53632          161.299       NO       
       PART-1-1.751       0.00256288          16.0685          161.582       NO       
       PART-1-1.753      0.000141094          9.73389          169.809       NO       
       PART-1-1.758      0.000100763          6.53733          167.883       NO       
       PART-1-1.760       0.00200357          9.43043          161.509       NO       
       PART-1-1.775       0.00225393          15.8614          162.077       NO       
       PART-1-1.777       0.00219395          15.5682          162.765       NO       
       PART-1-1.779       0.00178087          9.96147           161.69       NO       
       PART-1-1.780      0.000754491          11.0463          164.136       NO       
       PART-1-1.791      0.000600579          12.1297          163.969       NO       
       PART-1-1.792       0.00201015          9.84211          158.752       NO       
       PART-1-1.793      0.000583908          12.5843           166.92       NO       
       PART-1-1.794       0.00247522          15.8925          161.909       NO       
       PART-1-1.796       0.00236499          10.0061          160.235       NO       
       PART-1-1.798       0.00360909          11.5447          156.996       NO       
       PART-1-1.804      0.000539533          8.53535          164.236       NO       
       PART-1-1.807       0.00434368           11.241          157.743       NO       
       PART-1-1.811       0.00980431          11.1902          156.259       NO       
       PART-1-1.813      0.000676311          8.59796          163.147       NO       
       PART-1-1.815       0.00228402          10.0221          158.073       NO       
       PART-1-1.819       0.00143451          9.48946          162.422       NO       
       PART-1-1.820      0.000637316          10.6809          164.809       NO       
       PART-1-1.822       0.00280879          16.6006          161.053       NO       
       PART-1-1.837       0.00212532          10.1242          160.874       NO       
       PART-1-1.838       0.00262593          16.1779          162.178       NO       
       PART-1-1.840        0.0114488          19.2657          155.898       NO       
       PART-1-1.841        0.0121844          11.8322          155.346       NO       
       PART-1-1.842        0.0127443          12.2201          152.722       NO       
       PART-1-1.846      0.000798496          11.4978          163.897       NO       
       PART-1-1.853        0.0166413          12.9106          154.304       NO       
       PART-1-1.854       0.00349444          13.2411          159.802       NO       
       PART-1-1.856        0.0127035          11.5588          153.294       NO       
       PART-1-1.858      0.000484861          8.71532          164.304       NO       
       PART-1-1.861      0.000567655          12.9288           166.66       NO       
       PART-1-1.862      0.000889874          8.35075          163.482       NO       
       PART-1-1.867        0.0168697          20.1783          145.546       NO       
       PART-1-1.881       0.00489029          10.9597           156.52       NO       
       PART-1-1.882       0.00462637           18.153          159.638       NO       
       PART-1-1.885       0.00371063          11.3134          158.683       NO       
       PART-1-1.928        0.0146809          13.3384          153.748       NO       
       PART-1-1.943       0.00238232          16.3784          161.612       NO       
       PART-1-1.961       0.00678107          6.91703          140.482       NO       
       PART-1-1.972      0.000799083          10.9841          164.108       NO       
       PART-1-1.991      0.000304642          9.89219           166.23       NO       
       PART-1-1.994      0.000750016          13.7717           165.22       NO       
       PART-1-1.996        0.0151477          20.7568          153.015       NO       
      PART-1-1.1000       0.00538804          14.7779          157.452       NO       
      PART-1-1.1002       0.00257873          14.3448          158.318       NO       
      PART-1-1.1013       0.00335721          10.4416          158.224       NO       
      PART-1-1.1014        0.0148912          20.9846           153.88       NO       
      PART-1-1.1015        0.0145841          11.4031          153.889       NO       
      PART-1-1.1016       0.00987015          11.9842          157.228       NO       
      PART-1-1.1018       0.00271106          16.3396          161.356       NO       
      PART-1-1.1019      0.000314379          7.83052          166.238       NO       
      PART-1-1.1021      0.000368782          11.4368          168.014       NO       
      PART-1-1.1022      0.000569692          13.1498          165.909       NO       
      PART-1-1.1025      0.000239472          9.57812          166.847       NO       
      PART-1-1.1033      2.98143E-05          7.60891          172.501       NO       
      PART-1-1.1035       0.00028865          7.49663          165.664       NO       
      PART-1-1.1050       0.00955009          12.0586          152.222       NO       
      PART-1-1.1051       0.00268933          11.0976          159.275       NO       
      PART-1-1.1052       0.00926603          18.2412          156.506       NO       
      PART-1-1.1053       0.00238279          15.5968          158.005       NO       
      PART-1-1.1067       0.00430756          13.4307          158.569       NO       
      PART-1-1.1117       0.00481372          16.8107           160.48       NO       
      PART-1-1.1133       0.00549976          17.0484          158.902       NO       
      PART-1-1.1134        0.0072634          10.4748          158.204       NO       
      PART-1-1.1135       0.00318951          17.2477          161.092       NO       
      PART-1-1.1136       0.00980522           11.914          152.672       NO       
      PART-1-1.1143       0.00343449          11.0677          157.589       NO       
      PART-1-1.1147       0.00631166          16.4246          153.321       NO       
      PART-1-1.1148        0.0191949          21.4245          153.583       NO       
      PART-1-1.1149       0.00430064            13.58          158.574       NO       
      PART-1-1.1155       0.00252743           9.8642          160.551       NO       
      PART-1-1.1156        0.0189184          11.7822          153.787       NO       
      PART-1-1.1157       0.00317582          16.4745          161.802       NO       
      PART-1-1.1169        0.0118771           19.902          155.006       NO       
      PART-1-1.1170       0.00295992             13.6          160.098       NO       
      PART-1-1.1171       0.00922483          19.2273          157.142       NO       
      PART-1-1.1173       0.00693057          11.1361          158.685       NO       
      PART-1-1.1179         0.010405          18.7801          155.949       NO       
      PART-1-1.1188       0.00235719          15.3406          158.168       NO       
      PART-1-1.1192      6.91235E-05          9.21365          171.117       NO       
      PART-1-1.1193      7.10709E-05          7.85494          169.562       NO       
      PART-1-1.1195      0.000665755          10.8916          164.731       NO       
      PART-1-1.1197       0.00115907          8.64405          163.033       NO       
      PART-1-1.1198      0.000573687            8.885          163.745       NO       
      PART-1-1.1199      4.31609E-05           8.4711          170.605       NO       
      PART-1-1.1200      0.000672842           13.365          166.231       NO       
      PART-1-1.1201       0.00199687          15.2697          162.358       NO       
      PART-1-1.1205      0.000943034          12.8361          165.382       NO       
      PART-1-1.1216      6.48915E-05          8.63368          169.909       NO       
      PART-1-1.1218      0.000807914          12.2966          163.071       NO       
      PART-1-1.1222      0.000578212          7.95912          164.159       NO       
      PART-1-1.1223       0.00282984          10.9216          159.826       NO       
      PART-1-1.1224       0.00305939          10.0917          158.343       NO       
      PART-1-1.1226      0.000878426          11.1698          163.608       NO       
      PART-1-1.1227      4.36993E-05           8.0332          172.035       NO       
      PART-1-1.1228      0.000177254          7.59219          166.796       NO       
      PART-1-1.1229      4.90966E-05          5.77228          169.158       NO       
      PART-1-1.1230      8.56516E-05          7.99798          169.043       NO       
      PART-1-1.1231        0.0153005          16.6463          154.382       NO       
      PART-1-1.1237      6.17984E-05          6.54216          168.628       NO       
      PART-1-1.1242      5.47273E-05          8.38162          171.574       NO       
      PART-1-1.1245      0.000147912           10.438          169.107       NO       
      PART-1-1.1323       0.00191255          14.9595          162.711       NO       
      PART-1-1.1341       0.00839397          19.3702          157.507       NO       
      PART-1-1.1351       0.00028026          11.1851          168.054       NO       
      PART-1-1.1355       0.00237666          15.6571          161.822       NO       
      PART-1-1.1363        0.0101841          11.7836          153.025       NO       
      PART-1-1.1364       0.00223251          15.9083          161.909       NO       
      PART-1-1.1366       0.00597641          17.8535          159.261       NO       
      PART-1-1.1372       0.00125718          13.7065          164.306       NO       
      PART-1-1.1398       0.00215712          15.7373          162.254       NO       
      PART-1-1.1456        0.0120394          11.6706          156.205       NO       
      PART-1-1.1458        0.0149957          20.6336          154.055       NO       
      PART-1-1.1459       0.00357862          13.8177          159.367       NO       
      PART-1-1.1460        0.0104153           11.372          154.248       NO       
      PART-1-1.1463       0.00903753          18.8344          156.141       NO       
      PART-1-1.1467       0.00287064          16.6916          161.802       NO       
      PART-1-1.1474       0.00392272          10.3415          158.403       NO       
      PART-1-1.1475        0.0166959          13.0768          154.703       NO       
      PART-1-1.1478       0.00312226          16.3367          160.973       NO       
      PART-1-1.1479       0.00436563          14.1163          158.461       NO       
      PART-1-1.1483       0.00154636          9.25026          161.882       NO       
      PART-1-1.1491      7.02239E-05          6.44038          168.169       NO       
      PART-1-1.1492      3.88224E-05           7.0642          170.536       NO       
      PART-1-1.1493      7.50996E-05          9.46489          170.497       NO       
      PART-1-1.1494       0.00105649          13.2093          165.005       NO       
      PART-1-1.1495       0.00074584          8.79682          163.091       NO       
      PART-1-1.1499       0.00621371          14.4585          157.326       NO       
      PART-1-1.1500        0.0115019          11.9587          152.182       NO       
      PART-1-1.1510       0.00744024           18.787          158.089       NO       
      PART-1-1.1513       0.00764434          18.3628          157.428       NO       
      PART-1-1.1516        0.0112241          11.8548          153.154       NO       
      PART-1-1.1517       0.00570049          11.0445          158.693       NO       
      PART-1-1.1519       0.00021673          7.34318          166.951       NO       
      PART-1-1.1520       0.00198517          12.5263           161.64       NO       
      PART-1-1.1521      0.000154372          7.17547          166.433       NO       
      PART-1-1.1522      0.000332147          11.7338          167.472       NO       
      PART-1-1.1523      0.000331732          8.08135           162.83       NO       
      PART-1-1.1525      2.97697E-05          7.59941          172.655       NO       
      PART-1-1.1526      4.24329E-05          8.59061          171.381       NO       
      PART-1-1.1528      2.31502E-05          6.56444          171.407       NO       
      PART-1-1.1529       2.6846E-05          5.49889           170.63       NO       
      PART-1-1.1530      0.000143322          8.62208          168.267       NO       
      PART-1-1.1556       0.00384858          10.8354          158.095       NO       
      PART-1-1.1560       0.00398301           16.236          155.557       NO       
      PART-1-1.1574      0.000554102          8.25873          164.733       NO       
      PART-1-1.1575       0.00291016          10.2862          157.877       NO       
      PART-1-1.1576       0.00066228          12.6789          166.688       NO       
      PART-1-1.1577       0.00097709          11.2006          163.534       NO       
      PART-1-1.1578       0.00288634          16.1745          161.044       NO       
      PART-1-1.1581       0.00359587          10.6996          158.688       NO       
      PART-1-1.1590      0.000557793          12.3646          164.082       NO       
      PART-1-1.1591       5.4062E-05          8.18357          171.885       NO       
      PART-1-1.1592       0.00175029          9.84828          158.426       NO       
      PART-1-1.1593       0.00048395          10.2427          165.623       NO       
      PART-1-1.1594      0.000955261          8.85909          163.633       NO       
      PART-1-1.1642       0.00304103          10.8728          158.867       NO       
      PART-1-1.1643       0.00236055          14.6579          158.515       NO       
      PART-1-1.1644       0.00375642          17.7159          160.624       NO       
      PART-1-1.1645       0.00439455          14.4174          158.621       NO       
      PART-1-1.1657        0.0168465          21.6149          153.583       NO       
      PART-1-1.1660        0.0185582          16.8816          153.716       NO       
      PART-1-1.1662        0.0196844          11.7278          153.779       NO       
      PART-1-1.1664        0.0155435          13.2682          154.727       NO       
      PART-1-1.1666       0.00430082          11.2308          158.095       NO       
      PART-1-1.1668       0.00411695          14.1006          158.388       NO       
      PART-1-1.1676       2.1889E-05          5.18601          170.518       NO       
      PART-1-1.1682      0.000134642          9.33175          170.233       NO       
      PART-1-1.1694      0.000778848           13.322          165.623       NO       
      PART-1-1.1696       0.00112626          14.3432          164.776       NO       
      PART-1-1.1701        0.0191397           13.744          152.757       NO       
      PART-1-1.1706        0.0031973          9.15902          160.903       NO       
      PART-1-1.1712       0.00132715          8.82058          162.129       NO       
      PART-1-1.1729       0.00536998          14.4318          157.555       NO       
      PART-1-1.1730       0.00320469          16.5105          161.729       NO       
      PART-1-1.1733       0.00265023          10.1071          158.987       NO       
      PART-1-1.1734       0.00255449          9.93394          160.526       NO       
      PART-1-1.1735       0.00212387          14.0636          159.194       NO       
      PART-1-1.1744       0.00981278          19.5187          156.806       NO       
      PART-1-1.1746        0.0138503          11.7832          152.881       NO       
      PART-1-1.1747       0.00344746          10.7123          158.048       NO       
      PART-1-1.1748       0.00738678          11.2758          158.306       NO       
      PART-1-1.1749       0.00279191          16.4878          161.113       NO       
      PART-1-1.1751       0.00288259          13.4457          160.251       NO       
      PART-1-1.1752       0.00272899          10.9718          159.068       NO       
      PART-1-1.1753       0.00333756          17.5088          160.924       NO       
      PART-1-1.1754       0.00771602          10.5279          158.408       NO       
      PART-1-1.1772      4.36451E-05          8.35496          170.542       NO       
      PART-1-1.1775      2.75881E-05          5.35816           170.15       NO       
      PART-1-1.1779      7.32686E-05          9.32215           170.65       NO       
      PART-1-1.1786       0.00285788           16.758          160.812       NO       
      PART-1-1.1787      0.000922232          12.5207          162.579       NO       
      PART-1-1.1788       0.00051401          11.8819          167.088       NO       
      PART-1-1.1793        0.0131139          19.4324          147.604       NO       
      PART-1-1.1794       0.00845029          19.3681          156.086       NO       
      PART-1-1.1795       0.00584923          14.1155          158.446       NO       
      PART-1-1.1800       8.8566E-05          9.00382          170.754       NO       
      PART-1-1.1805      6.36824E-05          8.92988          171.072       NO       
      PART-1-1.1812      0.000120711          9.72984          170.098       NO       
      PART-1-1.1814      0.000171146          7.75514          163.991       NO       
      PART-1-1.1816      6.07091E-05          8.66471          171.507       NO       
      PART-1-1.1820      0.000137795          6.92964          166.873       NO       
      PART-1-1.1821       0.00234058          9.90321           159.95       NO       
      PART-1-1.1822      0.000607818          10.1845          165.276       NO       
      PART-1-1.1824       0.00275816          15.3838          161.782       NO       
      PART-1-1.1841        0.0162837          15.7563          154.253       NO       
      PART-1-1.1847      0.000603049          8.38577          163.872       NO       
      PART-1-1.1849       0.00145595          9.58864          161.893       NO       
      PART-1-1.1850      0.000508682          12.0638          166.853       NO       
      PART-1-1.1851       0.00131816          13.9268          164.242       NO       
      PART-1-1.1852      0.000441781          9.74505          166.076       NO       
      PART-1-1.1853      5.74397E-05           6.1472          168.706       NO       
      PART-1-1.1855      0.000172898          7.76909          163.937       NO       
      PART-1-1.1856      4.67056E-05          7.03788          170.526       NO       
      PART-1-1.1857      0.000101684          6.75429          168.073       NO       
      PART-1-1.1859      5.11297E-05          8.36901          171.618       NO       
      PART-1-1.1863       0.00201546          8.95453          161.953       NO       
      PART-1-1.1865       0.00359804          14.3346          156.982       NO       
      PART-1-1.1866       0.00782948           15.277          155.188       NO       
      PART-1-1.1867        0.0025565          15.3406          163.039       NO       
      PART-1-1.1875        0.0102932          19.3309          155.219       NO       
      PART-1-1.1878       0.00838179          11.0424          153.673       NO       
      PART-1-1.1879       0.00394488          11.5582          156.387       NO       
      PART-1-1.1880        0.0161097          20.9229          152.731       NO       
      PART-1-1.1883       0.00461617          16.3829          160.726       NO       
      PART-1-1.1885       0.00347936          9.57748           161.81       NO       
      PART-1-1.1886       0.00262882          13.6811          160.666       NO       
      PART-1-1.1895       0.00045563          7.84345          165.358       NO       
      PART-1-1.1896       0.00420488          11.1756          158.014       NO       
      PART-1-1.1897      0.000543451          12.1288          167.352       NO       
      PART-1-1.1898       0.00258809           9.8813          158.934       NO       
      PART-1-1.1899       0.00354261          17.1337          160.685       NO       
      PART-1-1.1901       0.00336966          16.7115          160.258       NO       
      PART-1-1.1917        0.0161898          16.9258          153.865       NO       
      PART-1-1.1918        0.0015129          9.52529          158.836       NO       
      PART-1-1.1919      0.000547054          10.6202          165.253       NO       
      PART-1-1.1920        0.0193423          13.1297          153.853       NO       
      PART-1-1.1922       0.00157969          14.7466          163.077       NO       
      PART-1-1.1924      0.000785841          8.42009          164.548       NO       
      PART-1-1.1926      0.000958529           13.059          165.808       NO       
      PART-1-1.1928        0.0191304           22.956          150.958       NO       
      PART-1-1.1929      0.000815554          8.14313          163.536       NO       
      PART-1-1.1935      0.000226091          10.2771          169.329       NO       
      PART-1-1.1936      0.000290762          7.71059          163.347       NO       
      PART-1-1.1937      0.000464959          12.5386          166.406       NO       
      PART-1-1.1939      0.000118158          9.76172          168.578       NO       
      PART-1-1.1959      0.000704531          8.98742          162.455       NO       
      PART-1-1.1967        0.0172475          22.2168          151.902       NO       
      PART-1-1.1988        0.0134342          20.2161          153.912       NO       
      PART-1-1.1989       0.00234361          15.6059          162.075       NO       
      PART-1-1.2014       0.00299923          16.0915          160.853       NO       
      PART-1-1.2016       0.00594423          17.9665          152.736       NO       
      PART-1-1.2026        0.0038501          16.9723          161.155       NO       
      PART-1-1.2035      0.000514854          8.65624          164.195       NO       
      PART-1-1.2037      0.000630071          10.7307          164.873       NO       
      PART-1-1.2041        0.0179905          13.3999          152.947       NO       
      PART-1-1.2042      0.000603363           13.003          166.598       NO       
      PART-1-1.2046       0.00187719          15.1254          162.656       NO       
      PART-1-1.2068       0.00265027          16.2013            161.7       NO       
      PART-1-1.2069       0.00329203          16.9107          161.121       NO       
      PART-1-1.2097      1.08117E-05          6.81176          173.598       NO       
      PART-1-1.2098      6.73609E-06          6.28989          173.494       NO       
      PART-1-1.2117        1.134E-05            5.108          171.467       NO       
      PART-1-1.2119      1.22974E-05           6.8746          173.564       NO       
      PART-1-1.2120      1.69292E-05          7.28428          172.787       NO       
      PART-1-1.2121      1.14971E-05          4.71953          171.444       NO       
      PART-1-1.2126      5.57861E-05          6.43731          168.951       NO       
      PART-1-1.2127       9.8472E-06          5.65123          172.713       NO       
      PART-1-1.2129      6.23707E-05          8.97027          171.293       NO       
      PART-1-1.2130       0.00151618          9.96373          158.239       NO       
      PART-1-1.2132       0.00264901          10.6864          160.163       NO       
      PART-1-1.2134      0.000448291          9.96104          166.043       NO       
      PART-1-1.2135        0.0148921          16.0139          154.776       NO       
      PART-1-1.2154        0.0024194          15.6164          162.342       NO       
      PART-1-1.2157       0.00473308          11.0904          156.252       NO       
      PART-1-1.2158      0.000760372           10.589          164.381       NO       
      PART-1-1.2159      0.000220223           11.047          168.931       NO       
      PART-1-1.2161       0.00326583          11.0704          159.053       NO       
      PART-1-1.2162      0.000192167          7.65196          166.485       NO       
      PART-1-1.2163      5.51488E-05          5.87727          169.074       NO       
      PART-1-1.2164      0.000219977          7.84179          163.912       NO       
      PART-1-1.2165          0.01509          16.2687          154.541       NO       
      PART-1-1.2166      0.000150074          10.3487           169.41       NO       
      PART-1-1.2168       0.00110142          13.5456          165.358       NO       
      PART-1-1.2170      3.13478E-05          8.03371          172.348       NO       
      PART-1-1.2171      7.03067E-05          7.53761          169.652       NO       
      PART-1-1.2172       0.00214972          14.1314          159.113       NO       
      PART-1-1.2173      0.000178741           10.647           167.33       NO       
      PART-1-1.2174      9.54415E-06          4.59505          171.718       NO       
      PART-1-1.2175      2.97022E-05          6.06088          167.891       NO       
      PART-1-1.2176      0.000137369          9.95387          169.774       NO       
      PART-1-1.2178      2.84409E-05          5.84264          170.062       NO       
      PART-1-1.2179       1.2869E-05          5.84556          172.282       NO       
      PART-1-1.2181      0.000834864          12.7968          165.711       NO       
      PART-1-1.2185       0.00262739          10.1025          159.043       NO       
      PART-1-1.2204      0.000511181          11.5437           164.67       NO       
      PART-1-1.2206        0.0020791          15.5341          162.845       NO       
      PART-1-1.2209       0.00176265          9.37129          159.787       NO       
      PART-1-1.2211       0.00207888          15.8797          162.305       NO       
      PART-1-1.2215       0.00778223          11.7146          157.906       NO       
      PART-1-1.2267      0.000515443          12.5118          164.202       NO       
      PART-1-1.2269       0.00905449          19.5417          156.041       NO       
      PART-1-1.2272      1.97049E-05          7.47919          172.661       NO       
      PART-1-1.2276      0.000222366          7.69847          165.402       NO       
      PART-1-1.2278       4.7346E-05          8.05157          172.089       NO       
      PART-1-1.2279      0.000201107          7.87307          163.957       NO       
      PART-1-1.2280      4.21463E-05          5.72781          170.115       NO       
      PART-1-1.2282      0.000140821          10.1365          169.638       NO       
      PART-1-1.2283      0.000557804           12.029          167.242       NO       
      PART-1-1.2284       0.00403052          11.0926          157.527       NO       
      PART-1-1.2285      0.000732534          10.3595            164.6       NO       
      PART-1-1.2299       0.00107091           13.316           164.72       NO       
      PART-1-1.2300      0.000590156          12.7164          166.204       NO       
      PART-1-1.2301      0.000695161          8.92725          162.961       NO       
      PART-1-1.2302       0.00082367          8.49303          163.987       NO       
      PART-1-1.2304       0.00228018          10.6379          156.606       NO       
      PART-1-1.2305      6.91049E-05          8.65236          171.507       NO       
      PART-1-1.2306      0.000365852          9.54942          166.687       NO       
      PART-1-1.2307       0.00014952          7.67903          163.922       NO       
      PART-1-1.2308      8.40332E-05          9.17656          170.451       NO       
      PART-1-1.2311      4.09493E-05          6.93049          170.822       NO       
      PART-1-1.2321      0.000110464          6.77721          165.894       NO       
      PART-1-1.2322       7.0317E-05          9.03456          171.277       NO       
      PART-1-1.2327      0.000118081          8.57611          168.364       NO       
      PART-1-1.2330       0.00289243           14.642           157.72       NO       
      PART-1-1.2332      4.99351E-05           8.3217          170.476       NO       
      PART-1-1.2334        0.0159085          11.4977          153.927       NO       
      PART-1-1.2335        0.0164812           21.041          152.528       NO       
      PART-1-1.2336      4.87813E-05           7.3235          170.393       NO       
      PART-1-1.2337      0.000381725          12.1131          165.164       NO       
      PART-1-1.2338        0.0135975          19.8144           147.13       NO       
      PART-1-1.2339       0.00106185          9.45701          159.075       NO       
      PART-1-1.2340      0.000501663          11.4333          167.317       NO       
      PART-1-1.2341       0.00129264          12.1007          162.462       NO       
      PART-1-1.2342       0.00244033          15.2721          161.891       NO       
      PART-1-1.2343      0.000690496          8.72495          163.603       NO       
      PART-1-1.2346      0.000607583          11.9065           164.09       NO       
      PART-1-1.2354        0.0181616          12.2414          154.772       NO       
      PART-1-1.2355       0.00381693          17.4485          160.722       NO       
      PART-1-1.2376      0.000218637          11.0564          166.723       NO       
      PART-1-1.2377       0.00265568          10.5017          160.414       NO       
      PART-1-1.2379      0.000355346          11.4265          167.659       NO       
      PART-1-1.2380      0.000542624          9.00021          161.008       NO       
      PART-1-1.2384      0.000324898          11.3154           168.04       NO       
      PART-1-1.2385        0.0092563          19.2506          155.917       NO       
      PART-1-1.2401      0.000397607          11.2482          165.444       NO       
      PART-1-1.2403        0.0182878          17.3294          152.408       NO       
      PART-1-1.2409       0.00128737          9.01305          160.396       NO       
      PART-1-1.2413      3.77659E-05          7.99041          170.988       NO       
      PART-1-1.2414        0.0011464          9.33712          163.113       NO       
      PART-1-1.2415        0.0074138          18.1681          157.276       NO       
      PART-1-1.2416       0.00981531          11.1881          156.858       NO       
      PART-1-1.2417       0.00242509           15.056          158.186       NO       
      PART-1-1.2418        0.0107354          11.8208          153.165       NO       
      PART-1-1.2419      4.43441E-05          8.35758          171.834       NO       
      PART-1-1.2424      0.000443213          12.1977          164.736       NO       
      PART-1-1.2425      0.000455076          10.0898          165.929       NO       
      PART-1-1.2426      8.01762E-05          6.51251          166.504       NO       
      PART-1-1.2427        0.0141629          16.1256          154.859       NO       
      PART-1-1.2428      0.000631026          10.9427            164.5       NO       
      PART-1-1.2429       0.00128483          9.66586          158.834       NO       
      PART-1-1.2430         0.000733          12.4286          166.125       NO       
      PART-1-1.2431      8.74427E-05          6.62955          168.621       NO       
      PART-1-1.2432      0.000308329           7.5982          163.935       NO       
      PART-1-1.2433      0.000118991          9.35913          168.703       NO       
      PART-1-1.2435        0.0139938          11.2973          154.476       NO       
      PART-1-1.2436      7.22636E-05          7.97539          169.309       NO       
      PART-1-1.2437       0.00265182          10.2226          159.854       NO       
      PART-1-1.2440      0.000427041          11.6338          167.274       NO       
      PART-1-1.2441      0.000143966          7.02675          167.282       NO       
      PART-1-1.2443      0.000504237          8.25531          164.473       NO       
      PART-1-1.2448        0.0070429          15.0531          156.503       NO       
      PART-1-1.2459       0.00409626          13.5936            158.8       NO       
      PART-1-1.2465       0.00205254          14.7889          158.976       NO       
      PART-1-1.2468       0.00883713          11.3809          153.702       NO       
      PART-1-1.2470         0.005796          17.0453          158.677       NO       
      PART-1-1.2477      1.79808E-05          5.70214          168.458       NO       
      PART-1-1.2478      4.91356E-05          7.21122          170.419       NO       
      PART-1-1.2479      5.35743E-05          8.98121          170.037       NO       
      PART-1-1.2480      0.000109644          7.25884          164.874       NO       
      PART-1-1.2481       0.00010145          9.58331          170.037       NO       
      PART-1-1.2482      0.000195015           10.825          168.908       NO       
      PART-1-1.2483       0.00104399          13.2165           161.82       NO       
      PART-1-1.2484       0.00237771          15.4006          162.581       NO       
      PART-1-1.2485       0.00373617          11.0155          156.672       NO       
      PART-1-1.2486       0.00325445          16.9247          160.398       NO       
      PART-1-1.2501       0.00775013           18.828          157.859       NO       
      PART-1-1.2505       0.00419322          17.5408          159.653       NO       
      PART-1-1.2512       0.00239796          13.1363          160.753       NO       
      PART-1-1.2516       0.00464786          9.76358          159.619       NO       
      PART-1-1.2517       0.00915962          19.2494          156.353       NO       
      PART-1-1.2519       0.00591322          11.1206          158.851       NO       
      PART-1-1.2520       0.00176591          12.1909          162.508       NO       
      PART-1-1.2521       0.00713487          17.4927          157.719       NO       
      PART-1-1.2523        0.0020569          15.3881          158.658       NO       
      PART-1-1.2525        0.0078598          11.9176          152.661       NO       
      PART-1-1.2527        0.0165222          19.7939          145.914       NO       
      PART-1-1.2532      1.45664E-05          6.16799          171.988       NO       
      PART-1-1.2534      0.000711731          10.9586          164.422       NO       
      PART-1-1.2536       0.00615901          16.0133          153.653       NO       
      PART-1-1.2542      0.000820912          13.5238          165.952       NO       
      PART-1-1.2555      0.000167735          10.4983          169.227       NO       
      PART-1-1.2569       0.00599843          16.1388          153.731       NO       
      PART-1-1.2579      8.75651E-06          6.13697          174.067       NO       
      PART-1-1.2580      7.64512E-06          4.76259          170.425       NO       
      PART-1-1.2581      4.58436E-06          5.79799          174.011       NO       
      PART-1-1.2589       0.00266209          16.8291          160.857       NO       
      PART-1-1.2594        0.0010469          11.6329          163.152       NO       
      PART-1-1.2611        0.0100166          19.1995          155.582       NO       
      PART-1-1.2613       0.00376383           13.865          159.225       NO       
      PART-1-1.2614        0.0117765          11.5672          153.794       NO       
      PART-1-1.2615        0.0133928          11.8227          155.789       NO       
      PART-1-1.2639        0.0106435          10.7666          156.165       NO       
      PART-1-1.2640       0.00195145          13.4375          159.785       NO       
      PART-1-1.2642        0.0196853           22.482           152.61       NO       
      PART-1-1.2644        0.0145217          20.8917          153.005       NO       
      PART-1-1.2660       0.00563471           16.719          153.678       NO       
      PART-1-1.2662       0.00416754          13.2364          159.286       NO       
      PART-1-1.2663       0.00303568          10.2452          160.488       NO       
      PART-1-1.2667      6.19388E-05          9.11946          169.741       NO       
      PART-1-1.2668      0.000472538          8.45009          164.804       NO       
      PART-1-1.2669      0.000129122          7.44617          164.591       NO       
      PART-1-1.2670       0.00890512          16.3468          144.631       NO       
      PART-1-1.2679       0.00214833          15.7454          158.366       NO       
      PART-1-1.2682      0.000463855          7.94533           165.38       NO       
      PART-1-1.2683       0.00297853          16.4601          160.811       NO       
      PART-1-1.2685       0.00276725          16.1133          161.782       NO       
      PART-1-1.2686       0.00290674          10.3726          157.904       NO       
      PART-1-1.2687       0.00369114          10.9084          158.245       NO       
      PART-1-1.2739        0.0021768          15.7124          158.284       NO       
      PART-1-1.2743       0.00621487          16.9037          158.423       NO       
      PART-1-1.2773        0.0130099          12.0604          154.985       NO       
      PART-1-1.2774       0.00041382          12.0989          167.089       NO       
      PART-1-1.2775      0.000172194          8.74017          167.901       NO       
      PART-1-1.2776      0.000122719          6.91389          167.779       NO       
      PART-1-1.2777      0.000149501          10.1088          167.902       NO       
      PART-1-1.2778       0.00987901          19.5383          155.492       NO       
      PART-1-1.2779      0.000369708          8.25555          162.666       NO       
      PART-1-1.2783      0.000511461          8.31358          165.026       NO       
      PART-1-1.2784      0.000607801          12.4762          166.807       NO       
      PART-1-1.2792      0.000568565          9.98562          165.483       NO       
      PART-1-1.2793      0.000581174          12.8403          166.348       NO       
      PART-1-1.2796       0.00517503           15.667          154.666       NO       
      PART-1-1.2800       0.00305729          10.9526          156.534       NO       
      PART-1-1.2810       0.00180353          14.5164          163.421       NO       
      PART-1-1.2856        0.0152312          15.5101          154.828       NO       
      PART-1-1.2862       0.00305913          11.0106          156.119       NO       
      PART-1-1.2865       0.00123045          13.6303          164.488       NO       
      PART-1-1.2866        0.0016359          14.9074          163.944       NO       
      PART-1-1.2869       0.00134009          9.37846          162.193       NO       
      PART-1-1.2886      0.000475921          11.4178          164.914       NO       
      PART-1-1.2888       0.00304344          16.8155          160.937       NO       
      PART-1-1.2889       0.00162437          9.24069          160.028       NO       
      PART-1-1.2891       0.00202605          15.0062          162.467       NO       
      PART-1-1.2930        0.0167385          10.8674          155.822       NO       
      PART-1-1.2931       0.00257726          13.6656          158.671       NO       
      PART-1-1.2941        0.0118981          15.8747          156.029       NO       
      PART-1-1.2957       0.00733427          16.4301          152.582       NO       
      PART-1-1.2974        0.0144798          20.4643          146.288       NO       
      PART-1-1.3002       0.00014496          7.23054          165.127       NO       
      PART-1-1.3004      9.49696E-05          8.07951          168.927       NO       
      PART-1-1.3011      4.97661E-05          5.95538          169.575       NO       
      PART-1-1.3027      0.000175866          10.3765           169.22       NO       
      PART-1-1.3028      0.000204665          11.0727          168.602       NO       
      PART-1-1.3031       0.00282085            10.14          158.182       NO       
      PART-1-1.3032        0.0187812          11.6132          153.555       NO       
      PART-1-1.3033        0.0034254          16.7825          160.822       NO       
      PART-1-1.3037       0.00671258          15.2445          156.606       NO       
      PART-1-1.3039        0.0032692          14.8508          157.127       NO       
      PART-1-1.3040      0.000661894           12.684          166.709       NO       
      PART-1-1.3041        0.0196599          21.7039          151.392       NO       
      PART-1-1.3042      0.000555323          8.23947          164.702       NO       
      PART-1-1.3051      0.000918614          12.3425          162.694       NO       
      PART-1-1.3054       0.00572023           18.496          158.727       NO       
      PART-1-1.3055       0.00374477          10.1162          158.217       NO       
      PART-1-1.3056       0.00498617          17.6928           158.58       NO       
      PART-1-1.3076      0.000157214          7.30158          165.004       NO       
      PART-1-1.3077       0.00444718          11.0888          157.958       NO       
      PART-1-1.3078      6.95309E-05          8.80299          169.724       NO       
      PART-1-1.3079      4.98022E-05          5.91388          169.633       NO       
      PART-1-1.3080      0.000686471          12.6879           166.66       NO       
      PART-1-1.3101       0.00160832          9.66556          158.785       NO       
      PART-1-1.3102       0.00111503          13.6291          165.229       NO       
      PART-1-1.3106      6.14607E-05          6.36543           168.19       NO       
      PART-1-1.3107      0.000503438          10.3744          165.465       NO       
      PART-1-1.3108      0.000508839          12.4875          166.685       NO       
      PART-1-1.3115      6.91746E-05          6.24226          169.166       NO       
      PART-1-1.3116        0.0149969          16.4917          154.146       NO       
      PART-1-1.3118      7.86263E-05          8.85558          171.206       NO       
      PART-1-1.3119      0.000116905          10.0379          169.624       NO       
      PART-1-1.3120        0.0195521          12.5359          152.357       NO       
      PART-1-1.3121       0.00374604           15.481          156.178       NO       
      PART-1-1.3123         0.017531          21.8459          151.887       NO       
      PART-1-1.3124       0.00282957          11.0499          159.481       NO       
      PART-1-1.3125      5.73867E-05          7.54928          169.962       NO       
      PART-1-1.3127       0.00311535          16.2472           156.59       NO       
      PART-1-1.3128       0.00348724          17.3803          160.714       NO       
      PART-1-1.3129        0.0127943          12.7243          150.939       NO       
      PART-1-1.3130       0.00797366          10.5719           157.52       NO       
      PART-1-1.3131       0.00604033          17.4847          158.457       NO       
      PART-1-1.3132      0.000811995          13.9959          165.169       NO       
      PART-1-1.3133      0.000325912          9.85708          166.006       NO       
      PART-1-1.3135      0.000146919          9.50594          168.222       NO       
      PART-1-1.3136        0.0023968          9.61739          160.926       NO       
      PART-1-1.3139      0.000398624          7.87288          163.596       NO       
      PART-1-1.3141      0.000668951          12.8671          165.841       NO       
      PART-1-1.3171       0.00232177           12.813          161.195       NO       
      PART-1-1.3244         0.011073           11.453          155.987       NO       
      PART-1-1.3261       9.5363E-06           4.6632           171.72       NO       
      PART-1-1.3266      0.000103213          6.98218          165.424       NO       
      PART-1-1.3274       0.00351835          9.69164          159.888       NO       
      PART-1-1.3293       0.00067456          12.3428          166.419       NO       
      PART-1-1.3294       0.00173666           10.492          157.014       NO       
      PART-1-1.3295       0.00061012          13.2223          163.425       NO       
      PART-1-1.3299       0.00144325          14.5374          163.507       NO       
      PART-1-1.3301        0.0190676          11.9516            153.4       NO       
      PART-1-1.3302        0.0033905           14.937          156.905       NO       
      PART-1-1.3304      0.000157924          9.80377           169.84       NO       
      PART-1-1.3306      0.000400484          8.82542          161.204       NO       
      PART-1-1.3307      0.000173265          11.0238          167.216       NO       
      PART-1-1.3308       0.00424906          16.6387          160.019       NO       
      PART-1-1.3309      0.000679728          8.91827          163.419       NO       
      PART-1-1.3311       0.00101087          11.6669          163.369       NO       
      PART-1-1.3312       0.00343957          16.6991          160.161       NO       
      PART-1-1.3313       0.00230593          9.54695          159.623       NO       
      PART-1-1.3314      0.000615666          11.5934          164.148       NO       
      PART-1-1.3317      0.000802631            13.65          165.866       NO       
      PART-1-1.3319        0.0011111          11.5368          162.865       NO       
      PART-1-1.3340       0.00535311          16.6568          153.985       NO       
      PART-1-1.3348        0.0184292          21.8367          151.979       NO       
      PART-1-1.3356       0.00128859          9.54389          158.935       NO       
      PART-1-1.3357      0.000438887          12.1421          164.811       NO       
      PART-1-1.3359       0.00074914          12.3285          166.123       NO       
      PART-1-1.3363       0.00179769          9.41235          161.681       NO       
      PART-1-1.3368        0.0179741          22.1846          151.693       NO       
      PART-1-1.3369      0.000915333          8.78945          163.831       NO       
      PART-1-1.3370      0.000597044          8.62218          163.215       NO       
      PART-1-1.3383      0.000891419          11.1989          163.607       NO       
      PART-1-1.3387      0.000425955          7.91865          165.332       NO       
      PART-1-1.3388       0.00292378          10.5203          159.348       NO       
      PART-1-1.3389       0.00275114           16.393          161.542       NO       
      PART-1-1.3390      0.000486744          7.96724          164.193       NO       
      PART-1-1.3391       0.00236317          15.6504          161.778       NO       
      PART-1-1.3392        0.0020729          15.3988          162.306       NO       
      PART-1-1.3393       0.00219972          10.1068          158.405       NO       
      PART-1-1.3394      0.000656969          12.3109          163.613       NO       
      PART-1-1.3398       0.00274545           16.271          161.196       NO       
      PART-1-1.3399       0.00329484          10.8075          156.937       NO       
      PART-1-1.3400       0.00169448          10.0498          161.706       NO       
      PART-1-1.3401      0.000942426          13.0892          162.209       NO       
      PART-1-1.3404      0.000716981          11.0322          164.122       NO       
      PART-1-1.3405      0.000677983          12.3284            166.3       NO       
      PART-1-1.3407        0.0119349          15.7868          155.453       NO       
      PART-1-1.3408       0.00118179          13.9138          164.214       NO       
      PART-1-1.3409       0.00047991          12.5342          167.134       NO       
      PART-1-1.3422      0.000162329           7.0687          166.919       NO       
      PART-1-1.3423      0.000254913          11.6345            167.9       NO       
      PART-1-1.3434       0.00578544          14.6684          157.124       NO       
      PART-1-1.3437       0.00316763          16.4677          161.171       NO       
      PART-1-1.3440      4.66626E-05          8.61084          170.426       NO       
      PART-1-1.3444       5.4959E-05          8.77839          171.351       NO       
      PART-1-1.3445       0.00121451          13.7981          164.401       NO       
      PART-1-1.3448      0.000556676          12.3702          164.053       NO       
      PART-1-1.3449       0.00172115          9.96212          158.415       NO       
      PART-1-1.3452       0.00379458          16.5178          155.612       NO       
      PART-1-1.3463      0.000242811          10.4968           168.81       NO       
      PART-1-1.3466      0.000323806          8.06565          162.836       NO       
      PART-1-1.3467      0.000133526          10.0462          168.178       NO       
      PART-1-1.3468      0.000284604          7.38222          165.926       NO       
      PART-1-1.3472       0.00220444          12.6313          161.756       NO       
      PART-1-1.3478       0.00463514          16.4684          159.769       NO       
      PART-1-1.3497        0.0100499          19.1782          155.609       NO       
      PART-1-1.3498         0.012578          11.7446          153.317       NO       
      PART-1-1.3500       0.00263633          14.9634          157.914       NO       
      PART-1-1.3501       0.00329783          17.0817          161.239       NO       
      PART-1-1.3514       0.00161026          14.0976          163.547       NO       
      PART-1-1.3515       0.00177314          9.46099          159.128       NO       
      PART-1-1.3516      0.000532108          11.9482          164.427       NO       
      PART-1-1.3517       0.00318766          16.6295          160.659       NO       
      PART-1-1.3523      0.000271284          11.2616          168.236       NO       
      PART-1-1.3524      0.000280893          8.10357          163.294       NO       
      PART-1-1.3525      0.000119253          9.76297          168.402       NO       
      PART-1-1.3526       0.00761405          11.7595           155.89       NO       
      PART-1-1.3527       0.00587078          17.0786          153.265       NO       
      PART-1-1.3532        0.0152285          19.4074          155.273       NO       
      PART-1-1.3533       0.00313959          12.4369          160.593       NO       
      PART-1-1.3537       0.00375997          17.5571          160.633       NO       
      PART-1-1.3541       0.00383121          13.8382          159.393       NO       
      PART-1-1.3547      4.25609E-05          5.91372          169.161       NO       
      PART-1-1.3548       3.8211E-05          8.02888          172.057       NO       
      PART-1-1.3550        0.0169745          20.6069          153.463       NO       
      PART-1-1.3553      1.91917E-05          5.50563          170.703       NO       
      PART-1-1.3560      0.000590119          13.0173          165.722       NO       
      PART-1-1.3561       0.00863721          11.0415           154.17       NO       
      PART-1-1.3562       0.00826206          10.4773          158.698       NO       
      PART-1-1.3563        0.0161343          20.7149          153.152       NO       
      PART-1-1.3573         0.019996          22.9674          152.274       NO       
      PART-1-1.3574       3.3162E-05          5.60394          169.729       NO       
      PART-1-1.3575      0.000148455          10.2076          169.849       NO       
      PART-1-1.3581        0.0153074          12.0587          155.331       NO       
      PART-1-1.3596       0.00393129          15.3842          156.045       NO       
      PART-1-1.3597       0.00234476          15.3553          162.211       NO       
      PART-1-1.3598       0.00294154          9.80862           159.71       NO       
      PART-1-1.3601         0.015052          13.1588          154.543       NO       
      PART-1-1.3608       0.00108407           13.439          164.919       NO       
      PART-1-1.3609       0.00226905          10.6601          156.668       NO       
      PART-1-1.3611      0.000743808          13.3497          162.823       NO       
      PART-1-1.3617       0.00347042          13.4895          159.324       NO       
      PART-1-1.3646        0.0175577          17.9999          153.443       NO       
      PART-1-1.3648        0.0191454          20.6776          144.256       NO       
      PART-1-1.3649       0.00098281          8.45459          163.195       NO       
      PART-1-1.3651       0.00146747          9.87013          158.365       NO       
      PART-1-1.3653       0.00139933          14.1171          163.754       NO       
      PART-1-1.3654      0.000473054             10.1          165.882       NO       
      PART-1-1.3657      0.000499321          12.4484          164.323       NO       
      PART-1-1.3670        0.0135744          12.7573          151.283       NO       
      PART-1-1.3672       0.00319099          16.0493          156.568       NO       
      PART-1-1.3673        0.0074547          18.4275          157.226       NO       
      PART-1-1.3675      0.000466437          11.3022          165.023       NO       
      PART-1-1.3677       0.00333826            17.15          160.542       NO       
      PART-1-1.3678       0.00161531          9.14074          160.226       NO       
      PART-1-1.3679        0.0021535          15.1337          162.232       NO       
      PART-1-1.3689       0.00102765          13.1669          165.036       NO       
      PART-1-1.3690       0.00137431          9.47044           159.27       NO       
      PART-1-1.3692       0.00044956           11.916           164.84       NO       
      PART-1-1.3694      8.94051E-05          6.80767          165.742       NO       
      PART-1-1.3695      6.71798E-05          8.43968          171.358       NO       
      PART-1-1.3696      7.63897E-05          6.12075          168.644       NO       
      PART-1-1.3728      0.000694277          10.5901          164.567       NO       
      PART-1-1.3729      0.000501413          12.0858          167.397       NO       
      PART-1-1.3731      0.000423293          7.98187          165.411       NO       
      PART-1-1.3732       0.00213614          15.4341            162.6       NO       
      PART-1-1.3735        0.0194285          12.6021          154.286       NO       
      PART-1-1.3756       0.00619553          10.0327          158.758       NO       
      PART-1-1.3776        0.0188147          21.5391          153.039       NO       
      PART-1-1.3785        0.0197303          20.8461          153.746       NO       
[...]
     PART-1-1.57728       0.00462292          14.1999          158.318       NO       
     PART-1-1.57770       0.00291703          10.3619          159.392       NO       
     PART-1-1.57776        0.0144355          11.1186          154.726       NO       
     PART-1-1.57791        0.0145206          21.1416          153.882       NO       
     PART-1-1.57796        0.0120868          20.4205          155.449       NO       
     PART-1-1.57797        0.0120975          10.9804          154.875       NO       
     PART-1-1.57798       0.00905656          11.9064          157.605       NO       
     PART-1-1.57799       0.00304183          10.3015          158.418       NO       
     PART-1-1.57809        0.0031417          10.3122          160.278       NO       
     PART-1-1.57812       0.00444898          13.4535          158.976       NO       
     PART-1-1.57813       0.00549228          16.6084          153.867       NO       
     PART-1-1.57814       0.00398232          16.9835          160.785       NO       
     PART-1-1.57837       0.00678694          11.2774          157.757       NO       
     PART-1-1.57839       0.00216465          10.3874          160.731       NO       
     PART-1-1.57885       0.00267457           14.844          161.981       NO       
     PART-1-1.57896        0.0157945          14.0867          153.049       NO       
     PART-1-1.57912       0.00262638          11.7987           161.16       NO       
     PART-1-1.57943        0.0124604          18.8404          156.697       NO       
     PART-1-1.57949      0.000669252          12.3594          166.266       NO       
     PART-1-1.57951      0.000710124          10.3644          164.775       NO       
     PART-1-1.57963       0.00145705          13.9926          160.421       NO       
     PART-1-1.57964       0.00984369          18.1984          149.959       NO       
     PART-1-1.57989       0.00290714          16.4562          161.371       NO       
     PART-1-1.57990       0.00309893          10.5541            159.2       NO       
     PART-1-1.57992      0.000468254          8.04782          165.093       NO       
     PART-1-1.57995       0.00250189          15.7811          161.581       NO       
     PART-1-1.58041        0.0197948          12.2844          153.909       NO       
     PART-1-1.58050        0.0140788          13.5541          149.358       NO       
     PART-1-1.58054       0.00263053          11.0175          160.024       NO       
     PART-1-1.58062       0.00829172          19.2929          157.667       NO       
     PART-1-1.58064        0.0064941          17.1619            158.6       NO       
     PART-1-1.58067      0.000218812          10.8446          166.841       NO       
     PART-1-1.58068       0.00015399          10.0514           169.61       NO       
     PART-1-1.58083      0.000443808          12.3229          164.664       NO       
     PART-1-1.58089      0.000288437          9.63116          166.464       NO       
     PART-1-1.58106       0.00808512           17.772          157.459       NO       
     PART-1-1.58110        0.0174989           23.124          152.716       NO       
     PART-1-1.58115         0.011182          15.7776          156.065       NO       
     PART-1-1.58135      0.000177603          6.94517           166.86       NO       
     PART-1-1.58205       0.00109543          13.5428           164.53       NO       
     PART-1-1.58223        0.0133415          11.5447          156.629       NO       
     PART-1-1.58227       0.00019808          9.20341          167.407       NO       
     PART-1-1.58228       0.00372542          17.7205          160.684       NO       
     PART-1-1.58229      0.000467829          12.5914          166.511       NO       
     PART-1-1.58230       0.00302096          10.8278          158.812       NO       
     PART-1-1.58232       0.00194356           10.129          160.583       NO       
     PART-1-1.58233       0.00237416          16.2233          162.471       NO       
     PART-1-1.58234       0.00063035          8.74426          163.008       NO       
     PART-1-1.58235       0.00295359          13.4921           160.03       NO       
     PART-1-1.58236       0.00254566          16.5528          161.176       NO       
     PART-1-1.58241       0.00676912          17.8939          157.632       NO       
     PART-1-1.58253       0.00488292          10.5574          157.762       NO       
     PART-1-1.58261      0.000730089          13.5682           165.43       NO       
     PART-1-1.58262      0.000200926          7.15818          166.145       NO       
     PART-1-1.58264      0.000662817          12.8538          166.394       NO       
     PART-1-1.58265       0.00549005          14.5692          157.546       NO       
     PART-1-1.58267      0.000558216          8.65898          164.579       NO       
     PART-1-1.58268       0.00029285          9.69876          166.432       NO       
     PART-1-1.58273      5.84852E-05          5.87475          169.004       NO       
     PART-1-1.58274       4.8471E-05          8.88575           170.22       NO       
     PART-1-1.58276      9.75225E-05          7.16318          165.066       NO       
     PART-1-1.58304      0.000100318          9.39312          168.971       NO       
     PART-1-1.58337      0.000481179          8.21105          163.835       NO       
     PART-1-1.58340      0.000394755          11.3356          165.419       NO       
     PART-1-1.58347      0.000476482          8.25044          164.715       NO       
     PART-1-1.58348      0.000490403           11.633          164.736       NO       
     PART-1-1.58352      0.000562597          12.5933          167.009       NO       
     PART-1-1.58354       0.00218863          9.88668           160.68       NO       
     PART-1-1.58364       0.00869222          19.2045          157.574       NO       
     PART-1-1.58382       0.00233712          9.63253          161.595       NO       
     PART-1-1.58385        0.0188983          20.8567          153.964       NO       
     PART-1-1.58388       0.00504879            16.19          154.466       NO       
     PART-1-1.58392       0.00414404          16.8128          155.064       NO       
     PART-1-1.58394       0.00256998          12.4704          161.486       NO       
     PART-1-1.58395         0.017969           13.285          149.806       NO       
     PART-1-1.58396       0.00900545          18.9222          156.354       NO       
     PART-1-1.58400         0.011987           11.254          155.779       NO       
     PART-1-1.58517      7.80095E-06          6.46454           173.28       NO       
     PART-1-1.58518      1.17787E-05          5.07082           170.85       NO       
     PART-1-1.58521        0.0118546          24.3875          152.629       NO       
     PART-1-1.58599        0.0194869           22.489          151.254       NO       
     PART-1-1.58605      0.000621764          12.5715          166.885       NO       
     PART-1-1.58608        0.0193771          17.3174          152.521       NO       
     PART-1-1.58610      0.000691675          12.1127          163.595       NO       
     PART-1-1.58620        0.0065359          10.2864          157.493       NO       
     PART-1-1.58623       0.00264474          11.0415          160.041       NO       
     PART-1-1.58643        0.0119608          18.6234          156.973       NO       
     PART-1-1.58658       0.00265387          14.7835           162.02       NO       
     PART-1-1.58668       0.00272383          10.9409          159.074       NO       
     PART-1-1.58690         0.019213          13.2303          152.832       NO       
     PART-1-1.58707      0.000597785          10.6702          165.003       NO       
     PART-1-1.58711        0.0018904           9.7897          158.408       NO       
     PART-1-1.58716          0.00251           11.647          161.376       NO       
     PART-1-1.58729       0.00108152          8.96178          163.471       NO       
     PART-1-1.58743      0.000701793          8.81412          162.755       NO       
     PART-1-1.58744        0.0146624          25.7254          151.465       NO       
     PART-1-1.58749        0.0013282          13.9975          164.705       NO       
     PART-1-1.58761       0.00176028          14.9974          162.842       NO       
     PART-1-1.58764        0.0195728          17.1572          152.889       NO       
     PART-1-1.58816      0.000555266           12.328          167.173       NO       
     PART-1-1.58841      0.000138371          10.0636          169.636       NO       
     PART-1-1.58924      0.000928083          11.2341          163.543       NO       
     PART-1-1.58925       0.00223237          9.84081          158.894       NO       
     PART-1-1.58954      0.000868393             11.3          163.708       NO       
     PART-1-1.58965      0.000236878          10.6118          168.839       NO       
     PART-1-1.58966      0.000132393          8.27461          168.686       NO       
     PART-1-1.58986      0.000206588          10.8766          169.139       NO       
     PART-1-1.59096         0.015467          11.9891          152.422       NO       
     PART-1-1.59102       0.00295983          13.4353          160.208       NO       
     PART-1-1.59124      0.000554581          8.27047          163.454       NO       
     PART-1-1.59128      0.000471617          12.2876          167.048       NO       
     PART-1-1.59188        0.0034614          10.4101          159.536       NO       
     PART-1-1.59191       0.00433494          17.5798          159.607       NO       
     PART-1-1.59193       0.00132151           12.066           162.42       NO       
     PART-1-1.59195       0.00222137          15.1277           162.11       NO       
     PART-1-1.59201      0.000646928          12.2175          166.484       NO       
     PART-1-1.59216        0.0147687          16.1118          154.831       NO       
     PART-1-1.59217      0.000635321          12.1215          166.538       NO       
     PART-1-1.59229       0.00738988           18.526          158.372       NO       
     PART-1-1.59286      0.000486064          8.16017          164.562       NO       
     PART-1-1.59291       0.00320742          17.3064          160.956       NO       
     PART-1-1.59292       0.00195715          12.2881          162.264       NO       
     PART-1-1.59293      0.000573924          12.6717          167.041       NO       
     PART-1-1.59354        0.0102335          12.0371          156.799       NO       
     PART-1-1.59385       0.00036558          9.12685          166.879       NO       
     PART-1-1.59386      0.000475615          8.36244          165.207       NO       
     PART-1-1.59389        0.0018123          9.58389          160.299       NO       
     PART-1-1.59390        0.0159372          14.9642          155.091       NO       
     PART-1-1.59391       0.00243545          10.7236          160.441       NO       
     PART-1-1.59393        0.0015563          11.3369          163.308       NO       
     PART-1-1.59394       0.00679487          16.6934          158.658       NO       
     PART-1-1.59435       0.00250291           15.838          157.688       NO       
     PART-1-1.59451       0.00146031          9.19515           161.95       NO       
     PART-1-1.59459        0.0137577          25.7385          150.933       NO       
     PART-1-1.59468       0.00262701          15.3583          157.765       NO       
     PART-1-1.59470       0.00373287          11.1433          157.343       NO       
     PART-1-1.59474      0.000703427          10.7364          164.414       NO       
     PART-1-1.59490      0.000574097          8.09567          164.057       NO       
     PART-1-1.59491      0.000204892          7.76425          165.324       NO       
     PART-1-1.59493       0.00267103          16.3386           161.94       NO       
     PART-1-1.59499       0.00154305          9.11459          161.957       NO       
     PART-1-1.59500       0.00058129          8.77269          163.968       NO       
     PART-1-1.59503      0.000692673          10.8069          164.679       NO       
     PART-1-1.59504      0.000684196          13.2218          166.277       NO       
     PART-1-1.59510      2.41351E-05          7.65657          172.661       NO       
     PART-1-1.59511       0.00349704          10.5975          158.021       NO       
     PART-1-1.59794         0.019012             14.9          154.205       NO       
     PART-1-1.60053        0.0154667           25.965          151.037       NO       
     PART-1-1.60058       0.00875998          22.8455          154.235       NO       
     PART-1-1.60063       0.00773383          22.3598          154.971       NO       
     PART-1-1.60079        0.0131994          25.2459          151.606       NO       
     PART-1-1.60106        0.0180754          27.4576           149.63       NO       
     PART-1-1.60151       0.00889078          23.0647          154.134       NO       
     PART-1-1.60240        0.0175163          27.0125          150.242       NO       
     PART-1-1.60246        0.0160284          28.9906          149.524       NO       
     PART-1-1.60247        0.0130427          22.9953          152.644       NO       
     PART-1-1.60346        0.0121443          24.7773          152.228       NO       
     PART-1-1.60351        0.0155813          26.4018          150.311       NO       
     PART-1-1.60392        0.0124199           24.509          152.766       NO       
     PART-1-1.61122        0.0564912          8.90783          126.138       NO       
     PART-1-1.61123        0.0682022          6.30042          142.351       NO       
     PART-1-1.61127         0.017444          25.5812          151.352       NO       
     PART-1-1.61128        0.0760262          9.49575          131.292       NO       
     PART-1-1.64458       0.00646835          16.7654          160.047       NO       
     PART-1-1.65244       0.00156755          15.7933          161.597       NO       
     PART-1-1.65368        0.0637391          9.81359           154.99       NO       
     PART-1-1.65388        0.0182435          26.2445          129.265       NO       
     PART-1-1.65636        0.0194268          28.7411          151.384       NO       
     PART-1-1.71872         0.010013          20.3512          157.295       NO       
     PART-1-1.71966        0.0194273          28.7415          151.384       NO       
     PART-1-1.71998        0.0108401          21.7197          150.915       NO       
     PART-1-1.72052        0.0194275          28.7413          151.384       NO       
     PART-1-1.72145        0.0191048          19.6891          149.175       NO       
     PART-1-1.72737       0.00201941          12.2578          156.923       NO       
     PART-1-1.72784        0.0173879          17.7975          151.881       NO       
     PART-1-1.78488        0.0138107           15.482          151.029       NO       
     PART-1-1.78721       0.00579886          24.1445          157.023       NO       
     PART-1-1.79744       0.00967774          17.9787          154.118       NO       
     PART-1-1.79756       0.00315003          22.0382           162.71       NO       
     PART-1-1.79776         0.007922          13.8803          159.597       NO       
     PART-1-1.80043        0.0108401          21.7197          150.915       NO       
     PART-1-1.80057        0.0138009           18.271           152.07       NO       
  
  
 --------------------------------------------------------------------------------
 Elements with small volume
  
      Element       Adjusted nodes 
 ------------------ -------------- 
     PART-1-1.20917       NO       
     PART-1-1.20933       NO       
     PART-1-1.20969       NO       
     PART-1-1.21015       NO       
     PART-1-1.21016       NO       
     PART-1-1.21046       NO       
     PART-1-1.21055       NO       
     PART-1-1.21289       NO       
     PART-1-1.21712       NO       
     PART-1-1.21864       NO       
     PART-1-1.21884       NO       
     PART-1-1.22735       NO       
     PART-1-1.23163       NO       
     PART-1-1.23640       NO       
     PART-1-1.24073       NO       
     PART-1-1.24106       NO       
     PART-1-1.24668       NO       
     PART-1-1.24829       NO       
  
  *Step, name=Step-1, nlgeom=NO, perturbation
  *output, field, variable=PRESELECT
  *Step, name=Step-1, nlgeom=NO, perturbation

 ***ERROR: NODE SET ASSEMBLY_BOTTOM_SET_PIN HAS NOT BEEN DEFINED

 ***ERROR: NODE SET ASSEMBLY_BOTTOM_SET_PIN HAS NOT BEEN DEFINED

 ***ERROR: NODE SET ASSEMBLY_TOP_SET_PIN HAS NOT BEEN DEFINED

 ***ERROR: NODE SET ASSEMBLY_TOP_SET_PIN HAS NOT BEEN DEFINED

 ***ERROR: NODE SET ASSEMBLY_TOP_SET_PIN HAS NOT BEEN DEFINED

 ***ERROR: NODE SET ASSEMBLY_TOP_SET_PIN HAS NOT BEEN DEFINED
  *Step, name=Step-1, nlgeom=NO, perturbation
  *buckle
  *boundary, op=NEW, loadcase=1
  *boundary, op=NEW, loadcase=2
  *boundary, op=NEW, loadcase=1
  *boundary, op=NEW, loadcase=2
  *dsload

 ***ERROR: THE SURFACE ASSEMBLY_TOP_SURFACE HAS NOT BEEN LOCATED
 LINE IMAGE: ASSEMBLY_TOP_SURFACE, P, 1.
  *output, field, variable=PRESELECT
  *endstep
  *Step, name=Step-1, nlgeom=NO, perturbation
  *buckle
  *buckle
  *boundary, op=NEW, loadcase=1

 ***ERROR: A BOUNDARY CONDITION HAS BEEN SPECIFIED ON NODE SET 
           ASSEMBLY_BOTTOM_SET_PIN BUT THIS NODE SET IS NOT ACTIVE IN THE MODEL
  *boundary, op=NEW, loadcase=2

 ***ERROR: A BOUNDARY CONDITION HAS BEEN SPECIFIED ON NODE SET 
           ASSEMBLY_BOTTOM_SET_PIN BUT THIS NODE SET IS NOT ACTIVE IN THE MODEL
  *boundary, op=NEW, loadcase=1

 ***ERROR: A BOUNDARY CONDITION HAS BEEN SPECIFIED ON NODE SET 
           ASSEMBLY_TOP_SET_PIN BUT THIS NODE SET IS NOT ACTIVE IN THE MODEL

 ***ERROR: A BOUNDARY CONDITION HAS BEEN SPECIFIED ON NODE SET 
           ASSEMBLY_TOP_SET_PIN BUT THIS NODE SET IS NOT ACTIVE IN THE MODEL
  *boundary, op=NEW, loadcase=2

 ***ERROR: A BOUNDARY CONDITION HAS BEEN SPECIFIED ON NODE SET 
           ASSEMBLY_TOP_SET_PIN BUT THIS NODE SET IS NOT ACTIVE IN THE MODEL

 ***ERROR: A BOUNDARY CONDITION HAS BEEN SPECIFIED ON NODE SET 
           ASSEMBLY_TOP_SET_PIN BUT THIS NODE SET IS NOT ACTIVE IN THE MODEL
  *endstep

 ***ERROR: NODE SET ASSEMBLY_BOTTOM_SET_PIN HAS NOT BEEN DEFINED

 ***ERROR: NODE SET ASSEMBLY_BOTTOM_SET_PIN HAS NOT BEEN DEFINED

 ***ERROR: NODE SET ASSEMBLY_TOP_SET_PIN HAS NOT BEEN DEFINED

 ***ERROR: NODE SET ASSEMBLY_TOP_SET_PIN HAS NOT BEEN DEFINED

 ***ERROR: NODE SET ASSEMBLY_TOP_SET_PIN HAS NOT BEEN DEFINED

 ***ERROR: NODE SET ASSEMBLY_TOP_SET_PIN HAS NOT BEEN DEFINED



                            P R O B L E M   S I Z E


          NUMBER OF ELEMENTS IS                                 80742
          NUMBER OF ELEMENTS DEFINED BY THE USER AND *TIE       80740
          NUMBER OF NODES IS                                    35607
          NUMBER OF NODES DEFINED BY THE USER                   35607
          TOTAL NUMBER OF VARIABLES IN THE MODEL               106827
          (DEGREES OF FREEDOM PLUS MAX NO. OF ANY LAGRANGE MULTIPLIER
           VARIABLES. INCLUDE *PRINT,SOLVE=YES TO GET THE ACTUAL NUMBER.)





          THE PROGRAM HAS DISCOVERED    41 FATAL ERRORS

               ** EXECUTION IS TERMINATED **

 ***ERROR: Failed to locate set "ASSEMBLY_TOP_SET_PIN".



                              END OF USER INPUT PROCESSING



     JOB TIME SUMMARY
       USER TIME (SEC)      =   3.3000    
       SYSTEM TIME (SEC)    =  0.80000    
       TOTAL CPU TIME (SEC) =   4.1000    
       WALLCLOCK TIME (SEC) =          4
