1

   Abaqus 3DEXPERIENCE R2019x                                  Date 02-May-2020   Time 00:30:32
   For use by TEXAS A_M UNIVERSITY SYSTEM under license from Dassault Systemes or its subsidiary.



                         The Abaqus Software is a product of:

                           Dassault Systemes SIMULIA Corp.
                           1301 Atwood Avenue, Suite 101W
                              Johnston, RI 02919, USA
 


                   The Abaqus Software is available only under license
                   from Dassault Systemes or its subsidiary and may be
                   used or reproduced only in accordance with the terms
                   of such license.
 
                          On machine AERO-MJ09CBE4 
                          you are authorized to run
                          Abaqus/Standard until 11-Jul-2021

                          Your site id is: 200000000002185 


 
                    For assistance or any other information you may
                    obtain contact information for your local office
                    from the world wide web at:

                      http://www.3ds.com/products/simulia/locations/

 
                * * * * * * * * * * * * * * * * * * * * * * * * * * * * * * 
                *                                                         * 
                *                   *****************                     * 
                *                   *  N O T I C E  *                     * 
                *                   *****************                     * 
                *                                                         * 
                *                                                         * 
                *               Abaqus 3DEXPERIENCE R2019x                * 
                *                                                         * 
                *          BUILD ID: 2018_09_24-13.41.51 157541           * 
                *                                                         * 
                *                                                         * 
                *  Please make sure you are using                         * 
                *  release 3DEXPERIENCE R2019x manuals                    * 
                *  plus the notes accompanying this release.              * 
                *                                                         * 
                *                                                         * 
                *                                                         * 
                *                                                         * 
                *                                                         * 
                *   This program may not be used for commercial purposes  * 
                *           without payment of a commercial fee.          * 
                *                                                         * 
                * * * * * * * * * * * * * * * * * * * * * * * * * * * * * * 


 



     PROCESSING PART, INSTANCE, AND ASSEMBLY INFORMATION
   *******************************************************


 ***ERROR: in keyword *RIGIDBODY, file "Buckling_job_6.inp", line 54346: 
           Unknown assembly set TOP_SET_PIN
 ***NOTE: DUE TO AN INPUT ERROR THE ANALYSIS PRE-PROCESSOR HAS BEEN UNABLE TO 
          INTERPRET SOME DATA.  SUBSEQUENT ERRORS MAY BE CAUSED BY THIS OMISSION

 ***ERROR: in keyword *RIGIDBODY, file "Buckling_job_6.inp", line 54348: 
           Unknown assembly set BOTTOM_SET_PIN

 ***ERROR: in keyword *BOUNDARY, file "Buckling_job_6.inp", line 54370: Unknown 
           assembly node set BOTTOM_SET_PIN

 ***ERROR: in keyword *BOUNDARY, file "Buckling_job_6.inp", line 54372: Unknown 
           assembly node set BOTTOM_SET_PIN

 ***ERROR: in keyword *BOUNDARY, file "Buckling_job_6.inp", line 54375: Unknown 
           assembly node set TOP_SET_PIN

 ***ERROR: in keyword *BOUNDARY, file "Buckling_job_6.inp", line 54375: Unknown 
           assembly node set TOP_SET_PIN

 ***ERROR: in keyword *BOUNDARY, file "Buckling_job_6.inp", line 54378: Unknown 
           assembly node set TOP_SET_PIN

 ***ERROR: in keyword *BOUNDARY, file "Buckling_job_6.inp", line 54378: Unknown 
           assembly node set TOP_SET_PIN

     END PROCESSING PART, INSTANCE, AND ASSEMBLY INFORMATION
   ***********************************************************




     OPTIONS BEING PROCESSED
   ***************************


  *Heading
  *Node
  *Element, type=C3D4
  *Nset, nset=ASSEMBLY_PART-1-1_FIBRE_SET2
  *Nset, nset=ASSEMBLY_PART-1-1_FIBRE_SET5
  *Elset, elset=ASSEMBLY_PART-1-1_FIBRE_SET2
  *Elset, elset=ASSEMBLY_PART-1-1_FIBRE_SET5
  *Node
  *Nset, nset=ASSEMBLY__PICKEDSET19
  *Nset, nset=ASSEMBLY__PICKEDSET21

 ***WARNING: BUCKLE OPTION IS NOT SUPPORTED FOR ELEMENT LOOP PARALLELIZATION. 
             IF YOU HAVE SPECIFIED ELEMENT LOOP PARALLELIZATION, IT WILL BE 
             TURNED OFF FOR THIS ANALYSIS.
 LINE IMAGE: *buckle
  *material, name=FIBRE_MATERIAL
  *elastic
  *material, name=MATRIX_MATERIAL
  *elastic
  *solidsection, elset=ASSEMBLY_PART-1-1_FIBRE_SET2, material=FIBRE_MATERIAL
  *solidsection, elset=ASSEMBLY_PART-1-1_FIBRE_SET5, material=FIBRE_MATERIAL
  *solidsection, elset=ASSEMBLY_PART-1-1_FIBRE_SET2, material=FIBRE_MATERIAL
  *solidsection, elset=ASSEMBLY_PART-1-1_FIBRE_SET5, material=FIBRE_MATERIAL
  *rigidbody, refnode=ASSEMBLY__PICKEDSET19, pinnset=ASSEMBLY_TOP_SET_PIN
  *rigidbody, refnode=ASSEMBLY__PICKEDSET21, pinnset=ASSEMBLY_BOTTOM_SET_PIN
  *rigidbody, refnode=ASSEMBLY__PICKEDSET19, pinnset=ASSEMBLY_TOP_SET_PIN
  *rigidbody, refnode=ASSEMBLY__PICKEDSET21, pinnset=ASSEMBLY_BOTTOM_SET_PIN
  *rigidbody, refnode=ASSEMBLY__PICKEDSET19, pinnset=ASSEMBLY_TOP_SET_PIN
  *rigidbody, refnode=ASSEMBLY__PICKEDSET21, pinnset=ASSEMBLY_BOTTOM_SET_PIN
  *rigidbody, refnode=ASSEMBLY__PICKEDSET19, pinnset=ASSEMBLY_TOP_SET_PIN

 ***ERROR: NODE SET ASSEMBLY_TOP_SET_PIN HAS NOT BEEN DEFINED
  *rigidbody, refnode=ASSEMBLY__PICKEDSET21, pinnset=ASSEMBLY_BOTTOM_SET_PIN

 ***ERROR: NODE SET ASSEMBLY_BOTTOM_SET_PIN HAS NOT BEEN DEFINED
  *rigidbody, refnode=ASSEMBLY__PICKEDSET19, pinnset=ASSEMBLY_TOP_SET_PIN

 ***ERROR: NODE SET ASSEMBLY_TOP_SET_PIN HAS NOT BEEN DEFINED

 ***ERROR: UNABLE TO LOCATE NODE SET ASSEMBLY_TOP_SET_PIN. THE NODE SET MUST 
           HAVE BEEN PREVIOUSLY DEFINED. NODES IN THIS NODE SET WILL NOT BE 
           PART OF RIGID BODY
 LINE IMAGE: *rigidbody, refnode=ASSEMBLY__PICKEDSET19, 
             pinnset=ASSEMBLY_TOP_SET_PIN
  *rigidbody, refnode=ASSEMBLY__PICKEDSET21, pinnset=ASSEMBLY_BOTTOM_SET_PIN

 ***ERROR: NODE SET ASSEMBLY_BOTTOM_SET_PIN HAS NOT BEEN DEFINED

 ***ERROR: UNABLE TO LOCATE NODE SET ASSEMBLY_BOTTOM_SET_PIN. THE NODE SET MUST 
           HAVE BEEN PREVIOUSLY DEFINED. NODES IN THIS NODE SET WILL NOT BE 
           PART OF RIGID BODY
 LINE IMAGE: *rigidbody, refnode=ASSEMBLY__PICKEDSET21, 
             pinnset=ASSEMBLY_BOTTOM_SET_PIN

 ***ERROR: SURFACE DEFINITION ASSEMBLY_TOP_SURFACE NOT FOUND.
  *rigidbody, refnode=ASSEMBLY__PICKEDSET19, pinnset=ASSEMBLY_TOP_SET_PIN
  *rigidbody, refnode=ASSEMBLY__PICKEDSET21, pinnset=ASSEMBLY_BOTTOM_SET_PIN
  *rigidbody, refnode=ASSEMBLY__PICKEDSET19, pinnset=ASSEMBLY_TOP_SET_PIN

 ***ERROR: NODE SET ASSEMBLY_TOP_SET_PIN HAS NOT BEEN DEFINED

 ***ERROR: UNABLE TO LOCATE NODE SET ASSEMBLY_TOP_SET_PIN. THE NODE SET MUST 
           HAVE BEEN PREVIOUSLY DEFINED. NODES IN THIS NODE SET WILL NOT BE 
           PART OF RIGID BODY
 LINE IMAGE: *rigidbody, refnode=ASSEMBLY__PICKEDSET19, 
             pinnset=ASSEMBLY_TOP_SET_PIN
  *rigidbody, refnode=ASSEMBLY__PICKEDSET21, pinnset=ASSEMBLY_BOTTOM_SET_PIN

 ***ERROR: NODE SET ASSEMBLY_BOTTOM_SET_PIN HAS NOT BEEN DEFINED

 ***ERROR: UNABLE TO LOCATE NODE SET ASSEMBLY_BOTTOM_SET_PIN. THE NODE SET MUST 
           HAVE BEEN PREVIOUSLY DEFINED. NODES IN THIS NODE SET WILL NOT BE 
           PART OF RIGID BODY
 LINE IMAGE: *rigidbody, refnode=ASSEMBLY__PICKEDSET21, 
             pinnset=ASSEMBLY_BOTTOM_SET_PIN
  *boundary, op=NEW, loadcase=1
  *boundary, op=NEW, loadcase=2
  *boundary, op=NEW, loadcase=1
  *boundary, op=NEW, loadcase=2
  *boundary, op=NEW, loadcase=1
  *boundary, op=NEW, loadcase=2
  *boundary, op=NEW, loadcase=1
  *boundary, op=NEW, loadcase=2
  *rigidbody, refnode=ASSEMBLY__PICKEDSET19, pinnset=ASSEMBLY_TOP_SET_PIN
  *rigidbody, refnode=ASSEMBLY__PICKEDSET21, pinnset=ASSEMBLY_BOTTOM_SET_PIN
  *output, field, variable=PRESELECT
  *output, field, variable=PRESELECT
  *output, field, variable=PRESELECT

 ***ERROR: NODE SET ASSEMBLY_TOP_SET_PIN HAS NOT BEEN DEFINED

 ***ERROR: NODE SET ASSEMBLY_BOTTOM_SET_PIN HAS NOT BEEN DEFINED
  
                               E L E M E N T   Q U A L I T Y  C H E C K S        
  
  
 ***NOTES: DISTORTED ISOPARAMETRIC ELEMENTS: ANGLE BETWEEN ISOPARAMETRIC LINES 
           IS LESS THAN 45 DEGREES OR GREATER THAN 135 DEGREES.
  
           TETRAHEDRAL QUALITY MEASURE: VOLUME OF TETRAHEDRON DIVIDED BY THE 
           VOLUME OF EQUILATERAL TETRAHEDRON WITH SAME CIRCUMSPHERE RADIUS; 
           0 FOR DEGENERATE TETRAHEDRON AND 1 FOR EQUILATERIAL TETRAHEDRON. IT 
           IS RECOMMENDED THAT THE TETRAHEDRAL QUALITY MEASURE BE GREATER THAN 
           0.02, THE MIN INTERIOR (DIHEDRAL) ANGLE BE GREATER THAN 10 DEGREES, 
           AND THE MAX INTERIOR (DIHEDRAL) ANGLE BE LESS THAN 160 DEGREES. 
  
           MODIFIED TETRAHEDRAL QUALITY MEASURE: ANGLES BETWEEN THE TWO LINE 
           SEGMENTS ON EACH EDGE; THE EDGES OF MODIFIED TETRAHEDRAL SHOULD BE 
           AS STRAIGHT AS POSSIBLE. IT IS RECOMMENDED THAT THE ANGLE BETWEEN 
           THE TWO LINE SEGMENTS ON EACH EDGE IS BETWEEN 160 AND 180 DEGREES. 
  
           TRIANGULAR QUALITY MEASURE: AREA OF TRIANGLE DIVIDED BY THE AREA OF 
           EQUILATERAL TRIANGLE WITH SAME CIRCUMCIRCLE RADIUS; 0 FOR DEGENERATE 
           TRIANGLE AND 1 FOR EQUILATERAL TRIANGLE. IT IS RECOMMENDED THAT THE
           TRIANGULAR QUALITY MEASURE BE GREATER THAN 0.01, THE MIN INTERIOR 
           ANGLE BE GREATER THAN 10 DEGREES, AND THE MAX INTERIOR ANGLE BE LESS 
           THAN 160 DEGREES. 
  
           NODAL ADJUSTMENTS ARISING FROM CONTACT INTERACTIONS AND/OR TIE 
           CONSTRAINTS CAN CAUSE SEVERE ELEMENT DISTORTION. IT MAY BE NECESSARY 
           TO REMESH IN ORDER TO REDUCE THE AMOUNT OF ADJUSTMENT. 

 ***WARNING: 1200 elements are distorted. Either the isoparametric angles are 
             out of the suggested limits or the triangular or tetrahedral 
             quality measure is bad. The elements have been identified in 
             element set WarnElemDistorted.
  
 --------------------------------------------------------------------------------
 Distorted tetrahedral elements
  
      Element       Quality measure     Min angle        Max angle     Adjusted nodes 
 ------------------ ---------------- ---------------- ---------------- -------------- 
         PART-1-1.9       0.00270046           16.065            157.3       NO       
        PART-1-1.17        0.0117292          11.4691          153.763       NO       
        PART-1-1.19        0.0154214          11.4785          155.763       NO       
        PART-1-1.41       0.00307775           10.499          158.093       NO       
        PART-1-1.56        0.0187754          17.7794          152.958       NO       
        PART-1-1.61         0.012104          19.0178           156.37       NO       
        PART-1-1.83      0.000799485          10.5769          164.275       NO       
        PART-1-1.89       0.00842478          15.6531          154.841       NO       
       PART-1-1.103       0.00440762          13.1825          158.681       NO       
       PART-1-1.104         0.018994           21.705          153.503       NO       
       PART-1-1.105        0.0189442          17.9446          152.964       NO       
       PART-1-1.108       0.00976081          18.9413          155.824       NO       
       PART-1-1.110       0.00166186          11.9426          162.861       NO       
       PART-1-1.125        0.0176538           12.191          155.458       NO       
       PART-1-1.126        0.0030029          10.6098          159.006       NO       
       PART-1-1.143       0.00822841          18.2709          150.867       NO       
       PART-1-1.145        0.0032826           9.9602          160.569       NO       
       PART-1-1.158       0.00369567          17.0188          159.914       NO       
       PART-1-1.182       0.00243314          16.2432          161.645       NO       
       PART-1-1.195      0.000264543          7.52285           163.89       NO       
       PART-1-1.201        0.0184302          13.3349          152.668       NO       
       PART-1-1.203        0.0013762          9.02023          162.417       NO       
       PART-1-1.204       0.00219081          15.7136          162.014       NO       
       PART-1-1.213         0.015057          19.9105          155.021       NO       
       PART-1-1.224       0.00440815          16.1401          155.107       NO       
       PART-1-1.233       0.00273378          16.5785          161.102       NO       
       PART-1-1.239       0.00530614          9.84106          159.884       NO       
       PART-1-1.246        0.0096624          19.2062          155.727       NO       
       PART-1-1.254       0.00257377          15.0327           161.87       NO       
       PART-1-1.270        0.0141655          15.9837          155.066       NO       
       PART-1-1.282        0.0137642          15.9797          154.956       NO       
       PART-1-1.287       0.00186829          11.9511          162.413       NO       
       PART-1-1.291        0.0169726          20.9007          153.728       NO       
       PART-1-1.292       0.00472859          16.0253          154.904       NO       
       PART-1-1.293       0.00401283          10.4359          158.415       NO       
       PART-1-1.297       0.00409168          15.5974          155.768       NO       
       PART-1-1.298        0.0026995          15.8644          161.572       NO       
       PART-1-1.309       0.00350927          10.2182          158.661       NO       
       PART-1-1.314       0.00360637           15.955          156.127       NO       
       PART-1-1.316         0.019816          21.2046          153.263       NO       
       PART-1-1.317      0.000607971          8.59783          163.489       NO       
       PART-1-1.321        0.0165639          16.5851          154.009       NO       
       PART-1-1.445       0.00395735          10.0405          159.244       NO       
       PART-1-1.448       0.00638138          16.6259          153.157       NO       
       PART-1-1.452        0.0103777          18.8688          156.089       NO       
       PART-1-1.455       0.00247868            12.83          161.133       NO       
       PART-1-1.458       0.00633629          17.6681          158.099       NO       
       PART-1-1.460       0.00261118          14.7444          162.225       NO       
       PART-1-1.463        0.0026756          11.2524          159.307       NO       
       PART-1-1.464       0.00253654          16.1432           157.49       NO       
       PART-1-1.471       0.00957759          12.4791          151.239       NO       
       PART-1-1.500       0.00720553           11.372          158.642       NO       
       PART-1-1.502         0.010293          10.8325          155.018       NO       
       PART-1-1.505       0.00250964          16.3751           161.55       NO       
       PART-1-1.507       0.00339413          14.1367          159.241       NO       
       PART-1-1.510       0.00278811          14.2165          158.088       NO       
       PART-1-1.512        0.0166534          11.1858          154.754       NO       
       PART-1-1.528       0.00599784          10.4203          155.073       NO       
       PART-1-1.530       0.00353407          11.4843          156.439       NO       
       PART-1-1.533       0.00143807          14.0928          160.626       NO       
       PART-1-1.840        0.0189153          20.5582          144.502       NO       
       PART-1-1.994      0.000930797          11.4051          163.427       NO       
       PART-1-1.996       0.00301798           16.537          161.487       NO       
       PART-1-1.997         0.002713          9.85336          158.624       NO       
       PART-1-1.998      0.000556386          12.3189          166.733       NO       
      PART-1-1.1008        0.0194071          20.0393          144.765       NO       
      PART-1-1.1015      0.000596986          12.9952          166.665       NO       
      PART-1-1.1018       0.00050883          8.58925          164.182       NO       
      PART-1-1.1020       0.00040406           11.537          165.281       NO       
      PART-1-1.1021       0.00125734          9.16543          159.931       NO       
      PART-1-1.1023       0.00073515          11.1164          164.286       NO       
      PART-1-1.1231        0.0170169          17.3435          153.283       NO       
      PART-1-1.1235        0.0191728          22.8834          151.061       NO       
      PART-1-1.1673        0.0191332          22.8938          151.083       NO       
      PART-1-1.1691       0.00407925          14.0572          158.647       NO       
      PART-1-1.1695        0.0145381          12.8662           155.28       NO       
      PART-1-1.1696        0.0171099          21.3524          153.468       NO       
      PART-1-1.1697       0.00370916            15.22          156.399       NO       
      PART-1-1.1703        0.0194856          22.5884           152.57       NO       
      PART-1-1.1706       0.00236155          14.5393          158.555       NO       
      PART-1-1.1710        0.0115338          11.3916          154.111       NO       
      PART-1-1.1740       0.00303765          12.8557          160.261       NO       
      PART-1-1.1743        0.0133062          19.7384          155.428       NO       
      PART-1-1.1745       0.00553472          16.5943          153.843       NO       
      PART-1-1.1753       0.00326725          15.8442          156.581       NO       
      PART-1-1.1782        0.0169639          20.4626          154.702       NO       
      PART-1-1.1783       0.00389617          13.7359          159.099       NO       
      PART-1-1.1806       0.00222989          14.0888          158.978       NO       
      PART-1-1.1807        0.0177075          21.5944          153.256       NO       
      PART-1-1.1809       0.00255575          16.1153          162.458       NO       
      PART-1-1.1810       0.00206591          9.83633          160.809       NO       
      PART-1-1.1811       0.00424218          14.1789          158.406       NO       
      PART-1-1.1813        0.0124353           20.185          154.121       NO       
      PART-1-1.1896       0.00308593          11.0451          157.944       NO       
      PART-1-1.2076        0.0184001          17.9498          153.278       NO       
      PART-1-1.2187        0.0180305          22.3183          153.077       NO       
      PART-1-1.2188         0.013524          12.7301          155.341       NO       
      PART-1-1.2191       0.00389829          15.5062          156.027       NO       
      PART-1-1.2199       0.00268483          10.4853          159.796       NO       
      PART-1-1.2202       0.00332889          17.0378          161.249       NO       
      PART-1-1.2203       0.00279209          15.0297          157.651       NO       
      PART-1-1.2204        0.0136021          11.8326          153.189       NO       
      PART-1-1.2205        0.0111798          19.6091          154.969       NO       
      PART-1-1.2208       0.00392118          13.8645          159.148       NO       
      PART-1-1.2296        0.0034726          17.0174           160.31       NO       
      PART-1-1.2297       0.00432654          10.8399          157.397       NO       
      PART-1-1.2298        0.0178256          21.2858          152.996       NO       
      PART-1-1.2300        0.0041829          14.2556          158.715       NO       
      PART-1-1.2301       0.00365359          15.4276           156.37       NO       
      PART-1-1.2309        0.0114419          11.2098          154.948       NO       
      PART-1-1.2312        0.0165803          12.5572          154.624       NO       
      PART-1-1.2461        0.0189129          11.5151          154.467       NO       
      PART-1-1.2494        0.0195233          20.6643          144.211       NO       
      PART-1-1.2595        0.0180113          12.0598          152.645       NO       
      PART-1-1.2598       0.00342742          15.3221          156.674       NO       
      PART-1-1.2601       0.00328945          13.5653          159.653       NO       
      PART-1-1.2609         0.013813          20.4767           153.63       NO       
      PART-1-1.2615       0.00444582           14.113           158.54       NO       
      PART-1-1.2616        0.0152702          11.8498          153.286       NO       
      PART-1-1.2640       0.00863525          17.1945          151.315       NO       
      PART-1-1.2651       0.00188565           12.369          162.196       NO       
      PART-1-1.2654       0.00766356           11.757           153.07       NO       
      PART-1-1.2682        0.0136815          19.4726          155.728       NO       
      PART-1-1.2684       0.00369947          9.94401          159.935       NO       
      PART-1-1.2686       0.00297835          12.4508          160.527       NO       
      PART-1-1.2693       0.00331245          16.3136          156.276       NO       
      PART-1-1.2696        0.0067979          18.1342          157.731       NO       
      PART-1-1.2697       0.00892497           10.976          156.553       NO       
      PART-1-1.2698       0.00196778          11.9702          162.322       NO       
      PART-1-1.2756      0.000756852            8.263          163.693       NO       
      PART-1-1.2940       0.00349455           10.842          159.211       NO       
      PART-1-1.2945       0.00135256          12.3415          161.847       NO       
      PART-1-1.2946       0.00416787          18.1537          159.601       NO       
      PART-1-1.2949           0.0028          15.9108          161.069       NO       
      PART-1-1.3023        0.0197553          20.9842           143.88       NO       
      PART-1-1.3125        0.0151495          20.7016          154.319       NO       
      PART-1-1.3227      0.000457186          8.59176           164.54       NO       
      PART-1-1.3256        0.0196817          20.4136           144.33       NO       
      PART-1-1.3522        0.0185889          22.7044          151.179       NO       
      PART-1-1.3706        0.0161117           12.355          154.396       NO       
      PART-1-1.3780      0.000592416          12.4165          166.302       NO       
      PART-1-1.3937      0.000141361          9.50174          168.322       NO       
      PART-1-1.4050        0.0171917          22.0707          152.109       NO       
      PART-1-1.4181        0.0185641          12.8047          153.602       NO       
      PART-1-1.4236       0.00689713          17.5958          157.754       NO       
      PART-1-1.4237       0.00267782          15.8225          157.445       NO       
      PART-1-1.4239        0.0110835          12.1786          151.766       NO       
      PART-1-1.4240       0.00427739          16.4896          161.024       NO       
      PART-1-1.4243       0.00260175          9.50218          161.448       NO       
      PART-1-1.4250       0.00574844          16.1076           153.93       NO       
      PART-1-1.4279       0.00084562          8.28184          163.482       NO       
      PART-1-1.4450       0.00461897          11.2104          157.586       NO       
      PART-1-1.4453       0.00242963          12.5422          161.512       NO       
      PART-1-1.4457        0.0107452          18.4877          156.156       NO       
      PART-1-1.4464       0.00307544          12.7067          160.157       NO       
      PART-1-1.4465       0.00187247          9.44694          162.102       NO       
      PART-1-1.4466       0.00234919          15.3148          162.927       NO       
      PART-1-1.4467        0.0195605          12.8858           151.98       NO       
      PART-1-1.4854       0.00381784          10.2168          159.671       NO       
      PART-1-1.4855       0.00299694          15.6461          161.226       NO       
      PART-1-1.4858       0.00236819          11.9223          161.613       NO       
      PART-1-1.4859        0.0173593           13.162          153.013       NO       
      PART-1-1.4863        0.0040061          16.6873          155.242       NO       
      PART-1-1.4866        0.0115339          11.5855          154.983       NO       
      PART-1-1.4867       0.00856846          17.5213          157.734       NO       
      PART-1-1.4868       0.00192092          11.6848          162.479       NO       
      PART-1-1.4869       0.00239673          10.4403          160.783       NO       
      PART-1-1.4872       0.00881161          19.2919          156.237       NO       
      PART-1-1.4878        0.0194188          20.6267          144.283       NO       
      PART-1-1.4932       0.00407257          14.3865           158.35       NO       
      PART-1-1.4934       0.00295572          10.0547          158.805       NO       
      PART-1-1.4936        0.0153586          21.5284          153.946       NO       
      PART-1-1.4939         0.011499          12.5108          156.478       NO       
      PART-1-1.4940       0.00249199          14.1232           158.57       NO       
      PART-1-1.4942         0.014051          11.0636          154.898       NO       
      PART-1-1.4946       0.00567707          15.1178          157.247       NO       
      PART-1-1.4952        0.0129692          19.9061          154.124       NO       
      PART-1-1.4957        0.0122496          10.9848          154.804       NO       
      PART-1-1.4983       0.00112024          13.3231          164.736       NO       
      PART-1-1.5139       0.00221941          15.3738          158.406       NO       
      PART-1-1.5154        0.0073118          14.5968          156.185       NO       
      PART-1-1.5194       0.00350829           16.827          161.232       NO       
      PART-1-1.5197        0.0169437          16.5789          153.763       NO       
      PART-1-1.5250        0.0184908          22.6969          151.339       NO       
      PART-1-1.5253        0.0169304          17.3228          153.248       NO       
      PART-1-1.5259         0.018502          11.1821          155.088       NO       
      PART-1-1.5339       0.00250726           9.4771           161.72       NO       
      PART-1-1.5448        0.0019939          14.4995           159.23       NO       
      PART-1-1.5452       0.00899421          11.1179          154.223       NO       
      PART-1-1.5486        0.0188004          22.4872          151.297       NO       
      PART-1-1.5522        0.0162445             17.7           153.92       NO       
      PART-1-1.5628        0.0161959          16.7533          154.019       NO       
      PART-1-1.5692      0.000134505          6.86306          167.777       NO       
      PART-1-1.5845          0.01696          12.3468          154.279       NO       
      PART-1-1.5911      0.000703014          8.77958          163.441       NO       
      PART-1-1.5939       0.00835357          10.8861          157.373       NO       
      PART-1-1.6036         0.016511          17.2181          153.823       NO       
      PART-1-1.6083         0.015878          13.1103          152.638       NO       
      PART-1-1.6085        0.0016324          10.9189          163.119       NO       
      PART-1-1.6107        0.0027293          10.6919          160.627       NO       
      PART-1-1.6115        0.0118712           11.633          155.886       NO       
      PART-1-1.6125        0.0053788          17.7543           153.31       NO       
      PART-1-1.6186       0.00888418          10.9994          157.615       NO       
      PART-1-1.6194       0.00566688          16.9878          158.823       NO       
      PART-1-1.6205        0.0185437          13.4061          153.019       NO       
      PART-1-1.6211        0.0131301          19.4475          155.734       NO       
      PART-1-1.6214        0.0028691          15.5896          161.448       NO       
      PART-1-1.6229       0.00310805          16.7535          161.372       NO       
      PART-1-1.6231       0.00229694          12.3091          161.672       NO       
      PART-1-1.6235       0.00250886          10.5795          160.293       NO       
      PART-1-1.6268        0.0137252          12.9644          150.789       NO       
      PART-1-1.6275       0.00248752          10.6885          160.245       NO       
      PART-1-1.6353       0.00816688          18.7602          156.733       NO       
      PART-1-1.6410        0.0193022          17.4027          152.948       NO       
      PART-1-1.6441       0.00388676          15.6786          155.889       NO       
      PART-1-1.6516        0.0102211          11.9446          152.873       NO       
      PART-1-1.6517       0.00240033          15.2214          158.142       NO       
      PART-1-1.6522        0.0023545           10.596          160.046       NO       
      PART-1-1.6528       0.00339053          9.27149          160.955       NO       
      PART-1-1.6529       0.00904522          17.4124          150.916       NO       
      PART-1-1.6665       0.00934212          11.0479          156.871       NO       
      PART-1-1.6683        0.0146777          20.8272          153.696       NO       
      PART-1-1.6689        0.0125701          11.2026          153.889       NO       
      PART-1-1.6698       0.00759883          11.2363          158.691       NO       
      PART-1-1.6701       0.00248165          14.6574          158.338       NO       
      PART-1-1.6708        0.0110494          16.3241          156.217       NO       
      PART-1-1.6777        0.0195364          13.7429          152.616       NO       
      PART-1-1.6852       0.00363099          14.2314          159.173       NO       
      PART-1-1.6853       0.00381898          10.9293          157.245       NO       
      PART-1-1.6866        0.0191086          21.0634           154.22       NO       
      PART-1-1.6868       0.00409298          12.9812          158.936       NO       
      PART-1-1.6922        0.0171965          16.9864          153.475       NO       
      PART-1-1.6931       0.00307345          16.7924          161.328       NO       
      PART-1-1.7003        0.0167052          21.7072          152.336       NO       
      PART-1-1.7034        0.0183342          17.4298          153.102       NO       
      PART-1-1.7147      0.000158337           8.6858           168.14       NO       
      PART-1-1.7173        0.0158627          17.8054          153.983       NO       
      PART-1-1.7188       0.00700398          18.1351          157.441       NO       
      PART-1-1.7199       0.00451668          16.7658          160.581       NO       
      PART-1-1.7201       0.00271972          10.7309          158.383       NO       
      PART-1-1.7207       0.00346897          9.95073          160.998       NO       
      PART-1-1.7218        0.0161417          16.6324          153.529       NO       
      PART-1-1.7230       0.00837501          15.1349           155.54       NO       
      PART-1-1.7243       0.00568337          15.8625          154.152       NO       
      PART-1-1.7245        0.0032866          9.86219          160.344       NO       
      PART-1-1.7286       0.00171562          14.5959          163.481       NO       
      PART-1-1.7288       0.00107171          13.4651          161.657       NO       
      PART-1-1.7289      0.000556545           10.062          165.404       NO       
      PART-1-1.7298        0.0024355          10.5801          158.854       NO       
      PART-1-1.7306       0.00321549          15.8577          161.995       NO       
      PART-1-1.7321         0.019101          17.5671          153.025       NO       
      PART-1-1.7325      0.000635842          13.3417          165.969       NO       
      PART-1-1.7369       0.00241191          10.7924          156.483       NO       
      PART-1-1.7374      0.000785566          13.4401          162.612       NO       
      PART-1-1.7391        0.0103278          19.2437          155.423       NO       
      PART-1-1.7392        0.0138538          11.8533          155.841       NO       
      PART-1-1.7394       0.00257126          10.4404          159.754       NO       
      PART-1-1.7395       0.00317624          16.9976          161.425       NO       
      PART-1-1.7422        0.0174841          16.6313          153.768       NO       
      PART-1-1.7559        0.0178318          16.9994          153.309       NO       
      PART-1-1.7570       0.00235969          15.8543          157.907       NO       
      PART-1-1.7575         0.017366          17.2261          153.412       NO       
      PART-1-1.7577       0.00365618          15.8797          160.814       NO       
      PART-1-1.7640       0.00253444          16.5249          161.218       NO       
      PART-1-1.7642       0.00172899          12.4172          162.348       NO       
      PART-1-1.7696        0.0188896          17.8656           153.09       NO       
      PART-1-1.7836        0.0092291          19.3822          157.193       NO       
      PART-1-1.7851       0.00450454          16.1612          155.046       NO       
      PART-1-1.7856       0.00389833          10.5574          158.396       NO       
      PART-1-1.7858       0.00325266          13.3172           159.95       NO       
      PART-1-1.7861        0.0125517          12.3489          155.749       NO       
      PART-1-1.7862       0.00311264          16.3667          160.869       NO       
      PART-1-1.7870       0.00530613          17.3338          160.024       NO       
      PART-1-1.7872       0.00636858          17.1103          158.296       NO       
      PART-1-1.7874       0.00276499          16.5028          160.937       NO       
      PART-1-1.7875        0.0033945          11.0871          158.101       NO       
      PART-1-1.7877       0.00406326          10.0109            160.2       NO       
      PART-1-1.7892       0.00315035          16.3564          156.507       NO       
      PART-1-1.7893        0.0188561          21.1561          153.598       NO       
      PART-1-1.7898         0.004177          13.5506          158.843       NO       
      PART-1-1.7900       0.00310563          15.8595          161.192       NO       
      PART-1-1.7917       0.00619706          16.4804           153.35       NO       
      PART-1-1.7928       0.00511546          13.5392          158.083       NO       
      PART-1-1.7960       0.00676641          17.4662          157.908       NO       
      PART-1-1.7975       0.00288933          10.9904          158.787       NO       
      PART-1-1.7982       0.00471914          16.8407          154.462       NO       
      PART-1-1.8037       0.00501475          18.5042          159.309       NO       
      PART-1-1.8044       0.00304338          19.4591          151.061       NO       
      PART-1-1.8045       0.00346498          9.42904          159.973       NO       
      PART-1-1.8054       0.00584267          14.4492           156.87       NO       
      PART-1-1.8055        0.0109788          12.6018          151.261       NO       
      PART-1-1.8056       0.00277853          16.0974           157.13       NO       
      PART-1-1.8057       0.00485593          16.8359          159.488       NO       
      PART-1-1.8059       0.00778836          17.4446          157.608       NO       
      PART-1-1.8060       0.00312806          17.1024          161.102       NO       
      PART-1-1.8107       0.00862139          18.3774          156.652       NO       
      PART-1-1.8122       0.00286231          16.6636          161.739       NO       
      PART-1-1.8127        0.0119096          19.7601           155.46       NO       
      PART-1-1.8129        0.0179595          12.2757          152.256       NO       
      PART-1-1.8135       0.00289428          13.1919           160.24       NO       
      PART-1-1.8136        0.0102204          12.1033          156.499       NO       
      PART-1-1.8137       0.00256381          15.8877          161.647       NO       
      PART-1-1.8159          0.01501          16.5891          154.547       NO       
      PART-1-1.8188         0.018852          17.8603          153.247       NO       
      PART-1-1.8206       0.00648177          10.9227          158.437       NO       
      PART-1-1.8208       0.00210939           12.453          161.794       NO       
      PART-1-1.8209        0.0028975          16.4433          160.913       NO       
      PART-1-1.8210       0.00358493          10.8796          158.226       NO       
      PART-1-1.8225        0.0026644          12.1965          160.982       NO       
      PART-1-1.8261       0.00244836          15.1007          162.271       NO       
      PART-1-1.8281       0.00351788          17.6511          160.669       NO       
      PART-1-1.8298       0.00289186          15.4393          161.501       NO       
      PART-1-1.8305         0.017127          17.2601          153.581       NO       
      PART-1-1.8319        0.0035049          10.0999          159.462       NO       
      PART-1-1.8339        0.0104768          19.3635          155.359       NO       
      PART-1-1.8340        0.0131646          11.8417          153.143       NO       
      PART-1-1.8341       0.00274421          15.0532          157.709       NO       
      PART-1-1.8342        0.0140247          11.8383          155.581       NO       
      PART-1-1.8344        0.0163072          20.6396          153.756       NO       
      PART-1-1.8462        0.0164251          16.6769          154.021       NO       
      PART-1-1.8521        0.0184056          22.4667          151.462       NO       
      PART-1-1.8589        0.0145793          12.8554          151.096       NO       
      PART-1-1.8596        0.0100876          18.3279          156.645       NO       
      PART-1-1.8639        0.0173022          17.2219          153.307       NO       
      PART-1-1.8662        0.0035395          17.0218          161.232       NO       
      PART-1-1.8665        0.0181284          21.5469          151.828       NO       
      PART-1-1.8671       0.00639351          17.5269          158.602       NO       
      PART-1-1.8672        0.0139708          12.5801          151.949       NO       
      PART-1-1.8674       0.00164031          11.8272          162.474       NO       
      PART-1-1.8676       0.00655574          11.4249          157.576       NO       
      PART-1-1.8677       0.00187977           14.957          162.791       NO       
      PART-1-1.8758         0.017563          16.9951          153.205       NO       
      PART-1-1.8764        0.0193383          22.4927          151.242       NO       
      PART-1-1.8941        0.0126014          17.9832          148.811       NO       
      PART-1-1.8980       0.00266777          10.5184          159.781       NO       
      PART-1-1.8998       0.00636163          10.2528          158.239       NO       
      PART-1-1.9005       0.00702173          17.0724          157.917       NO       
      PART-1-1.9055       0.00446059          17.9823          159.851       NO       
      PART-1-1.9139        0.0197217          17.2576          152.829       NO       
      PART-1-1.9150       0.00182176          14.7595          159.417       NO       
      PART-1-1.9157       0.00392843          16.4218          161.147       NO       
      PART-1-1.9158       0.00577125          17.4968          158.381       NO       
      PART-1-1.9159       0.00303985          9.79901          161.238       NO       
      PART-1-1.9206      0.000187736          7.38139           166.04       NO       
      PART-1-1.9207       0.00341546          10.6254          158.537       NO       
      PART-1-1.9208      0.000440193          8.44751          161.983       NO       
      PART-1-1.9209      0.000164273          10.3557          169.375       NO       
      PART-1-1.9212      0.000377188          11.8602          167.233       NO       
      PART-1-1.9213        0.0170777          12.5385          151.436       NO       
      PART-1-1.9219      0.000259416          7.50006           166.56       NO       
      PART-1-1.9220      0.000175503          10.5087          167.462       NO       
      PART-1-1.9223        0.0159878          12.5856          153.604       NO       
      PART-1-1.9224      0.000303397          11.0956          168.568       NO       
      PART-1-1.9299         0.010881          18.3879          156.889       NO       
      PART-1-1.9309        0.0199045           17.083           152.47       NO       
      PART-1-1.9313          0.01758          17.3254          153.426       NO       
      PART-1-1.9321       0.00265257          16.3995           162.05       NO       
      PART-1-1.9326       0.00377829          11.0412           156.25       NO       
      PART-1-1.9327      0.000540091          12.0267          166.804       NO       
      PART-1-1.9328      0.000644719          8.28242           163.95       NO       
      PART-1-1.9343        0.0199742          16.3004          153.462       NO       
      PART-1-1.9352      0.000521764           8.5852          164.562       NO       
      PART-1-1.9358      0.000615988          12.7991          166.596       NO       
      PART-1-1.9361      0.000690772          12.9619          163.191       NO       
      PART-1-1.9363       0.00214501          10.4555          157.332       NO       
      PART-1-1.9364       0.00127433          13.9689          164.265       NO       
      PART-1-1.9367      0.000503248          9.97854          165.793       NO       
      PART-1-1.9402       0.00229927          12.6915          161.376       NO       
      PART-1-1.9403       0.00350016          10.7744          158.301       NO       
      PART-1-1.9404       0.00698726           11.118          158.186       NO       
      PART-1-1.9417       0.00329337          14.1196           157.47       NO       
      PART-1-1.9456        0.0133718          16.1904          155.295       NO       
      PART-1-1.9492       0.00493971          15.7465          154.825       NO       
      PART-1-1.9496       0.00403941          13.6559          158.959       NO       
      PART-1-1.9550        0.0191147          22.7198          151.233       NO       
      PART-1-1.9569       0.00760446          17.8041          151.576       NO       
      PART-1-1.9585       0.00706864          18.0639           157.55       NO       
      PART-1-1.9586         0.010818          18.8486          155.998       NO       
      PART-1-1.9603       0.00466371           10.232          160.094       NO       
      PART-1-1.9648       0.00603105          14.0907          157.188       NO       
      PART-1-1.9650       0.00333414          16.0263          161.878       NO       
      PART-1-1.9655        0.0183077          12.4336           154.42       NO       
      PART-1-1.9659        0.0195112           21.411          152.842       NO       
      PART-1-1.9660        0.0026863          16.5465          161.036       NO       
      PART-1-1.9662       0.00385451          9.94857          160.571       NO       
      PART-1-1.9678        0.0186444          17.1883          153.106       NO       
      PART-1-1.9711       0.00310279          17.0299          160.619       NO       
      PART-1-1.9719        0.0101956          19.4745          156.631       NO       
      PART-1-1.9735        0.0199852           13.404          153.538       NO       
      PART-1-1.9743        0.0059584          14.9834          156.736       NO       
      PART-1-1.9746         0.019288          13.5972          152.737       NO       
      PART-1-1.9748      0.000970396          13.0711          165.127       NO       
      PART-1-1.9749       0.00254044          13.9855          158.549       NO       
      PART-1-1.9750      0.000333598          9.31339          166.929       NO       
      PART-1-1.9751        0.0147854           11.144          155.173       NO       
      PART-1-1.9752       0.00282931          16.2483          162.251       NO       
      PART-1-1.9756       0.00975826          15.9052          149.851       NO       
      PART-1-1.9759       0.00226788          9.71131          160.686       NO       
      PART-1-1.9764         0.015498          22.2794          150.999       NO       
      PART-1-1.9766        0.0106715          25.6843          140.676       NO       
      PART-1-1.9767        0.0027043          15.2836          161.985       NO       
      PART-1-1.9775        0.0060012          15.8521          153.908       NO       
      PART-1-1.9792       0.00171836          14.6257          159.711       NO       
      PART-1-1.9796        0.0069392          11.1401          154.069       NO       
      PART-1-1.9799       0.00262079          13.3725          160.834       NO       
      PART-1-1.9800       0.00262762          11.1208          158.908       NO       
      PART-1-1.9802        0.0031959          17.5836          160.954       NO       
      PART-1-1.9805        0.0197731           16.913          153.277       NO       
      PART-1-1.9830         0.019076          13.8395          152.208       NO       
      PART-1-1.9846       0.00051542          8.34682           163.71       NO       
      PART-1-1.9917        0.0111254          12.2717           156.31       NO       
      PART-1-1.9918        0.0148096          21.3918          154.332       NO       
      PART-1-1.9919        0.0033011          10.2998          158.761       NO       
      PART-1-1.9920        0.0181694          12.0767          152.644       NO       
      PART-1-1.9925        0.0146042          16.4778           154.39       NO       
      PART-1-1.9931       0.00328166          13.5473          159.656       NO       
      PART-1-1.9937       0.00271226          10.3619          159.911       NO       
      PART-1-1.9939       0.00337601          16.9674          161.288       NO       
      PART-1-1.9942       0.00299159          15.0142          157.382       NO       
      PART-1-1.9944        0.0136193          20.4095           153.73       NO       
      PART-1-1.9945        0.0152726          11.8688          153.218       NO       
      PART-1-1.9951       0.00441435          14.0956          158.589       NO       
      PART-1-1.9985        0.0199133           12.404          153.531       NO       
      PART-1-1.9990        0.0104272          11.3682          156.502       NO       
      PART-1-1.9991        0.0122026          19.5806          155.297       NO       
      PART-1-1.9992        0.0109476          11.8274          153.255       NO       
     PART-1-1.10006       0.00312777          15.6889          156.823       NO       
     PART-1-1.10007       0.00485836          14.3658          157.625       NO       
     PART-1-1.10021       0.00308146          9.62613          159.634       NO       
     PART-1-1.10035       0.00354212          17.7178          160.732       NO       
     PART-1-1.10039       0.00244599          15.4078          162.172       NO       
     PART-1-1.10040        0.0156961          20.6701          153.439       NO       
     PART-1-1.10041       0.00754262          17.5644          157.154       NO       
     PART-1-1.10042       0.00258113          14.4985          162.446       NO       
     PART-1-1.10045       0.00372106          14.1429           159.33       NO       
     PART-1-1.10066      0.000701707          8.91386          162.672       NO       
     PART-1-1.10078       0.00979547          11.1101          156.122       NO       
     PART-1-1.10079       0.00888386          17.6635          157.347       NO       
     PART-1-1.10086       0.00377233          10.7514          158.538       NO       
     PART-1-1.10088        0.0170323          21.8691          152.081       NO       
     PART-1-1.10094        0.0105864          19.6728          156.396       NO       
     PART-1-1.10095       0.00172367          14.3674          163.436       NO       
     PART-1-1.10121       0.00908947          10.7839          158.061       NO       
     PART-1-1.10141       0.00551116          14.0025          157.517       NO       
     PART-1-1.10144       0.00155872          9.22964          161.425       NO       
     PART-1-1.10147       0.00154125           14.207            163.7       NO       
     PART-1-1.10168       0.00914349          18.3273          150.315       NO       
     PART-1-1.10175        0.0117864          20.2362          156.053       NO       
     PART-1-1.10177       0.00883986          11.2976          157.291       NO       
     PART-1-1.10179       0.00515396          17.1956          153.877       NO       
     PART-1-1.10181        0.0193631          14.2837          149.313       NO       
     PART-1-1.10201       0.00167583          11.9316          162.927       NO       
     PART-1-1.10248        0.0193102          12.6898          153.727       NO       
     PART-1-1.10322        0.0151186          20.3695          154.441       NO       
     PART-1-1.10323        0.0121225          20.1794           154.35       NO       
     PART-1-1.10325        0.0146307          12.1257          152.915       NO       
     PART-1-1.10329        0.0121087          19.3467          155.035       NO       
     PART-1-1.10330       0.00284842          13.3162          160.654       NO       
     PART-1-1.10347        0.0155099          16.6137           154.44       NO       
     PART-1-1.10398        0.0174863          21.1815          153.193       NO       
     PART-1-1.10399       0.00409375          14.1383          158.818       NO       
     PART-1-1.10411        0.0193893          17.6872          152.913       NO       
     PART-1-1.10420        0.0029809          16.4489          161.572       NO       
     PART-1-1.10421        0.0170503          13.4655          150.047       NO       
     PART-1-1.10444       0.00900754          11.7541          152.647       NO       
     PART-1-1.10446       0.00420422          16.4531          161.013       NO       
     PART-1-1.10450        0.0119035          14.6515          156.127       NO       
     PART-1-1.10498       0.00335203          10.1733          158.971       NO       
     PART-1-1.10560      0.000573138          12.5074          163.969       NO       
     PART-1-1.10561        0.0161703          16.6421           154.03       NO       
     PART-1-1.10562      0.000596857          12.8944          166.181       NO       
     PART-1-1.10568        0.0192421           22.384          151.331       NO       
     PART-1-1.10592       0.00794347          11.4324          157.586       NO       
     PART-1-1.10599       0.00242056          12.7674          161.137       NO       
     PART-1-1.10602        0.0104995          19.9458          156.449       NO       
     PART-1-1.10608       0.00275446          16.2076          161.224       NO       
     PART-1-1.10610       0.00999242          18.8632          156.321       NO       
     PART-1-1.10614        0.0189576          22.0818          151.426       NO       
     PART-1-1.10620       0.00326182          16.4735          161.606       NO       
     PART-1-1.10621       0.00762007          17.4605           151.77       NO       
     PART-1-1.10625       0.00432291          13.6497          158.795       NO       
     PART-1-1.10629        0.0040842          15.7049          155.696       NO       
     PART-1-1.10631      0.000515905          12.3212          166.684       NO       
     PART-1-1.10632      0.000566169          12.7696           166.35       NO       
     PART-1-1.10633       0.00255342          15.7361          161.834       NO       
     PART-1-1.10635       0.00259281          10.0234          160.702       NO       
     PART-1-1.10638      0.000154491           10.002          169.977       NO       
     PART-1-1.10642      0.000227189          9.08912          167.231       NO       
     PART-1-1.10672       0.00303723          16.5157          161.341       NO       
     PART-1-1.10673       0.00046197          7.92911          165.322       NO       
     PART-1-1.10703       0.00328684          11.0591          157.976       NO       
     PART-1-1.10705       0.00503994          17.0927          160.231       NO       
     PART-1-1.10707       0.00175341          12.2966          162.404       NO       
     PART-1-1.10742        0.0116152          20.4315          155.806       NO       
     PART-1-1.10743      0.000190411          10.3293          167.338       NO       
     PART-1-1.10745       0.00319283          10.4034          158.899       NO       
     PART-1-1.10746         0.010389          19.1336          156.163       NO       
     PART-1-1.10747      0.000498824          8.50368          162.196       NO       
     PART-1-1.10748       0.00353855          15.7438          156.311       NO       
     PART-1-1.10750        0.0087935          11.7443          157.066       NO       
     PART-1-1.10754        0.0172129          12.4357          151.837       NO       
     PART-1-1.10758        0.0190874           20.765          144.219       NO       
     PART-1-1.10761       0.00279488          10.2552          160.248       NO       
     PART-1-1.10766       0.00393822          15.6989          155.866       NO       
     PART-1-1.10768        0.0173311          21.5723           152.12       NO       
     PART-1-1.10771       0.00436264          13.7568          158.804       NO       
     PART-1-1.10794       0.00400833          15.8013          160.463       NO       
     PART-1-1.10795        0.0106509          19.1657          155.405       NO       
     PART-1-1.10849       0.00357541          11.1762          158.881       NO       
     PART-1-1.10853      0.000877369          10.8839          163.918       NO       
     PART-1-1.10855       0.00127831          13.4215          161.136       NO       
     PART-1-1.10866       0.00502625          11.0496          156.247       NO       
     PART-1-1.10869        0.0181781          22.8434          152.813       NO       
     PART-1-1.10884        0.0168165          20.1162          145.613       NO       
     PART-1-1.10885       0.00215564          10.2781          160.522       NO       
     PART-1-1.10891      0.000936229          8.47719          163.222       NO       
     PART-1-1.10892      0.000534607           12.736          166.857       NO       
     PART-1-1.10896       0.00077184          12.6158          165.931       NO       
     PART-1-1.10898      0.000448698          12.1884          164.699       NO       
     PART-1-1.10900      0.000442051          10.0098          165.997       NO       
     PART-1-1.10903       0.00128285          14.0034           164.02       NO       
     PART-1-1.10910       0.00130425          9.70205          158.838       NO       
     PART-1-1.10933       0.00895581          12.3034           151.78       NO       
     PART-1-1.11003       0.00240481          16.2828            161.3       NO       
     PART-1-1.11007       0.00118678          8.70099          160.545       NO       
     PART-1-1.11008      0.000366162          11.1919          165.732       NO       
     PART-1-1.11009       0.00115353          13.3737           165.19       NO       
     PART-1-1.11013       0.00093628          8.68911          164.376       NO       
     PART-1-1.11035      0.000431066          7.83959          165.101       NO       
     PART-1-1.11040      0.000420072           10.769          165.524       NO       
     PART-1-1.11042      0.000510376          12.2419          167.476       NO       
     PART-1-1.11043       0.00153251          8.77952           161.14       NO       
     PART-1-1.11052        0.0170668          17.3912          153.551       NO       
     PART-1-1.11292        0.0177507          16.9429          153.143       NO       
     PART-1-1.11320        0.0191256          12.2679          153.765       NO       
     PART-1-1.11425       0.00050468          10.4062          165.353       NO       
     PART-1-1.11430       0.00146461          9.47071          159.355       NO       
     PART-1-1.11433        0.0145657          16.4633          154.029       NO       
     PART-1-1.11434       0.00142664          14.6462          163.537       NO       
     PART-1-1.11435       0.00097132          8.99523          163.537       NO       
     PART-1-1.11437        0.0153683          21.4824            152.8       NO       
     PART-1-1.11457       0.00362603          10.5692          159.032       NO       
     PART-1-1.11458      0.000784115          12.4709          163.095       NO       
     PART-1-1.11464        0.0103384          19.3448          155.691       NO       
     PART-1-1.11467        0.0116065          11.5973          153.155       NO       
     PART-1-1.11470       0.00250968          15.0577          158.083       NO       
     PART-1-1.11485       0.00577896           10.773          159.331       NO       
     PART-1-1.11492       0.00378303          15.0266          156.401       NO       
     PART-1-1.11497       0.00259349          9.78521          160.694       NO       
     PART-1-1.11514        0.0034246          11.2559          157.715       NO       
     PART-1-1.11515       0.00280294          16.7418          160.784       NO       
     PART-1-1.11519        0.0108133          12.2993          151.337       NO       
     PART-1-1.11525       0.00623031          16.2561           153.46       NO       
     PART-1-1.11531       0.00243707          9.26539          161.927       NO       
     PART-1-1.11544       0.00606035          13.9637          157.132       NO       
     PART-1-1.11585        0.0177792           19.256           145.94       NO       
     PART-1-1.11590        0.0095855          19.4094          156.796       NO       
     PART-1-1.11637        0.0199713          11.9389          152.451       NO       
     PART-1-1.11656       0.00203961          14.0531          159.365       NO       
     PART-1-1.11774        0.0174545          16.8943           153.51       NO       
     PART-1-1.11843       0.00290586          16.7444          160.746       NO       
     PART-1-1.11849       0.00290238          15.9013          157.084       NO       
     PART-1-1.11866        0.0195933          17.7111          152.303       NO       
     PART-1-1.11904       0.00265305          16.0185          161.526       NO       
     PART-1-1.11905        0.0135439          20.3436          154.716       NO       
     PART-1-1.11920       0.00791285          17.5862          157.705       NO       
     PART-1-1.11927       0.00289296          15.9834          161.121       NO       
     PART-1-1.11932      0.000777306          13.1741          166.188       NO       
     PART-1-1.11969       0.00223799          16.1688          161.778       NO       
     PART-1-1.11999       0.00283585          16.0814          161.723       NO       
     PART-1-1.12020       0.00278978          9.49737          161.243       NO       
     PART-1-1.12042        0.0102996           11.115          154.418       NO       
     PART-1-1.12061       0.00556313          13.8338          157.176       NO       
     PART-1-1.12088        0.0160959          12.5196          151.337       NO       
     PART-1-1.12094       0.00349037          16.0096          156.243       NO       
     PART-1-1.12095       0.00282893          16.3719          161.049       NO       
     PART-1-1.12099       0.00945938          18.6244          156.525       NO       
     PART-1-1.12101       0.00597946          16.0275          153.804       NO       
     PART-1-1.12108       0.00932166          19.1373           156.01       NO       
     PART-1-1.12110        0.0123573          11.6102          155.542       NO       
     PART-1-1.12115         0.012123          12.0688          151.912       NO       
     PART-1-1.12137         0.004287          15.7272          155.469       NO       
     PART-1-1.12144       0.00449645          13.6744          158.583       NO       
     PART-1-1.12151       0.00316267           16.269          161.804       NO       
     PART-1-1.12166        0.0192529          16.2711          153.477       NO       
     PART-1-1.12284       0.00250689           9.8616          160.979       NO       
     PART-1-1.12300        0.0169586          16.9459          153.747       NO       
     PART-1-1.12376       0.00238832           15.896          161.972       NO       
     PART-1-1.12378        0.0161908          21.6496          153.418       NO       
     PART-1-1.12423       0.00357928          15.5548          161.761       NO       
     PART-1-1.12424       0.00271051           9.2321          162.718       NO       
     PART-1-1.12427       0.00292266          17.5047          160.466       NO       
     PART-1-1.12430       0.00285381          16.5723          161.262       NO       
     PART-1-1.12432       0.00242968          10.5143          160.663       NO       
     PART-1-1.12436      0.000662121          8.27429          163.479       NO       
     PART-1-1.12438       0.00383309          9.50879          160.415       NO       
     PART-1-1.12454        0.0192404          11.3769          155.137       NO       
     PART-1-1.12484        0.0153093          13.2062          150.274       NO       
     PART-1-1.12515       0.00125279          14.0647          163.938       NO       
     PART-1-1.12525      0.000440077          10.1452          165.935       NO       
     PART-1-1.12527        0.0176371          22.2962          151.639       NO       
     PART-1-1.12528      0.000637923          8.86748          162.852       NO       
     PART-1-1.12537        0.0110231          19.8363          154.831       NO       
     PART-1-1.12549       0.00518732          16.8509          160.094       NO       
     PART-1-1.12550       0.00285574          13.9456          160.163       NO       
     PART-1-1.12551       0.00390586          9.90616          161.366       NO       
     PART-1-1.12552       0.00297186          17.3264          160.536       NO       
     PART-1-1.12581        0.0135721          16.7654          155.024       NO       
     PART-1-1.12599        0.0117672          11.7354          153.591       NO       
     PART-1-1.12620        0.0151466           15.691          154.887       NO       
     PART-1-1.12622       0.00433835          13.9086          158.773       NO       
     PART-1-1.12724       0.00400003          13.9697          158.655       NO       
     PART-1-1.12739        0.0166332           21.346            153.7       NO       
     PART-1-1.12770        0.0131294          11.6142           156.25       NO       
     PART-1-1.12771          0.00281          10.6782          159.328       NO       
     PART-1-1.12782       0.00243602          14.7262          158.351       NO       
     PART-1-1.12784       0.00313686          15.6771          162.214       NO       
     PART-1-1.12785       0.00346938           17.355             161.       NO       
     PART-1-1.12805         0.016774          13.3736          152.232       NO       
     PART-1-1.12814       0.00166598          10.9634          162.947       NO       
     PART-1-1.12852        0.0075043          17.0535          158.961       NO       
     PART-1-1.12859       0.00319493          9.97579          159.162       NO       
     PART-1-1.12862        0.0152758          13.1078          154.848       NO       
     PART-1-1.12864       0.00536405          17.8464          153.286       NO       
     PART-1-1.12892      0.000353182          10.0662          165.821       NO       
     PART-1-1.12936       0.00233293          14.6919          162.322       NO       
     PART-1-1.12957        0.0028058          15.1629          161.783       NO       
     PART-1-1.12959        0.0036158          9.62889          160.346       NO       
     PART-1-1.12962       0.00828045          17.3766          151.396       NO       
     PART-1-1.12968       0.00297627           9.7099          161.004       NO       
     PART-1-1.12973          0.01839          20.8153          144.434       NO       
     PART-1-1.12974       0.00365621          12.8411          159.537       NO       
     PART-1-1.12996        0.0025487          10.9576           159.77       NO       
     PART-1-1.13005       0.00230327          14.1666          158.853       NO       
     PART-1-1.13006       0.00183573          12.0158          162.555       NO       
     PART-1-1.13019        0.0129903          16.3574          155.064       NO       
     PART-1-1.13054      0.000456895            12.15          167.083       NO       
     PART-1-1.13058         0.017604          16.9243             153.       NO       
     PART-1-1.13065        0.0174054          21.8888          152.083       NO       
     PART-1-1.13129      0.000174791          7.34366          165.903       NO       
     PART-1-1.13130      0.000476878          12.7314          166.333       NO       
     PART-1-1.13132      0.000263582          10.6872          168.881       NO       
     PART-1-1.13133      0.000153654          10.4349          169.484       NO       
     PART-1-1.13134       0.00298186          10.5174          158.297       NO       
     PART-1-1.13141      0.000225375          7.34346          167.118       NO       
     PART-1-1.13142       0.00839976          18.9494          157.523       NO       
     PART-1-1.13145       0.00634933           11.118          158.953       NO       
     PART-1-1.13146       0.00288877          13.6667          160.012       NO       
     PART-1-1.13147       0.00020399          9.36787          167.269       NO       
     PART-1-1.13167        0.0153667          23.0577          151.901       NO       
     PART-1-1.13175       0.00388152          10.2932          158.807       NO       
     PART-1-1.13177       0.00373442           17.058          161.133       NO       
     PART-1-1.13179       0.00370243          13.4793          159.359       NO       
     PART-1-1.13180        0.0169725          13.1145          154.204       NO       
     PART-1-1.13181       0.00307646          16.1085          161.068       NO       
     PART-1-1.13188       0.00688879          15.1866          156.329       NO       
     PART-1-1.13204        0.0198806          17.1161          153.352       NO       
     PART-1-1.13212      0.000887054          14.1786          164.814       NO       
     PART-1-1.13219      0.000144004          6.89507          167.465       NO       
     PART-1-1.13225      0.000381282          7.77841          163.631       NO       
     PART-1-1.13226       0.00296949          10.1283          159.839       NO       
     PART-1-1.13235      0.000165392          10.2179          169.872       NO       
     PART-1-1.13242      0.000591189          11.9584          166.734       NO       
     PART-1-1.13248        0.0014468          13.7166          160.567       NO       
     PART-1-1.13405        0.0140851          20.2438          154.587       NO       
     PART-1-1.13427        0.0037279          17.1326          160.539       NO       
     PART-1-1.13428        0.0116884           11.349          154.781       NO       
     PART-1-1.13432       0.00298022          10.9361           160.17       NO       
     PART-1-1.13441        0.0179387          12.0292          154.061       NO       
     PART-1-1.13548         0.016749          13.2982          154.053       NO       
     PART-1-1.13552       0.00333721          16.9181          161.348       NO       
     PART-1-1.13616        0.0162858          17.4377           153.97       NO       
     PART-1-1.13647       0.00451992          16.9468          154.603       NO       
     PART-1-1.13770        0.0147717          20.6329          154.399       NO       
     PART-1-1.13771        0.0035223          13.6011          159.366       NO       
     PART-1-1.13772       0.00268057          15.8976          161.572       NO       
     PART-1-1.13815        0.0188483          13.7762          152.678       NO       
     PART-1-1.13817        0.0181605          16.7119          153.765       NO       
     PART-1-1.13831        0.0021857          12.2829          161.775       NO       
     PART-1-1.13838        0.0116946          20.4391          155.929       NO       
     PART-1-1.13840       0.00937227          18.2239          156.919       NO       
     PART-1-1.13842       0.00884888          11.5466          156.893       NO       
     PART-1-1.13851       0.00302236          16.2967          160.864       NO       
     PART-1-1.13852       0.00328943          12.8242          160.089       NO       
     PART-1-1.13856        0.0023413          9.89863          161.263       NO       
     PART-1-1.13861       0.00294534          16.0692          161.981       NO       
     PART-1-1.13934       0.00430198          9.76951          159.629       NO       
     PART-1-1.13936       0.00525768          13.8113          157.821       NO       
     PART-1-1.13943        0.0190209           21.328          143.876       NO       
     PART-1-1.13944       0.00332247          15.6937          161.132       NO       
     PART-1-1.13949       0.00662774          17.6525          157.767       NO       
     PART-1-1.13997        0.0126445          16.5871          155.316       NO       
     PART-1-1.14100        0.0107599          11.3579          155.858       NO       
     PART-1-1.14176      0.000728541          12.1557          163.455       NO       
     PART-1-1.14198        0.0167168          17.6014          153.748       NO       
     PART-1-1.14246       0.00311401          9.49011          160.184       NO       
     PART-1-1.14253        0.0121398          14.5569           157.09       NO       
     PART-1-1.14254       0.00537239          15.8614          154.398       NO       
     PART-1-1.14272       0.00754588          10.4236          158.415       NO       
     PART-1-1.14286        0.0023024          15.2256          158.329       NO       
     PART-1-1.14295       0.00286927          11.1042          158.961       NO       
     PART-1-1.14305       0.00974987           11.725          152.885       NO       
     PART-1-1.14309      0.000852542          12.8752          166.144       NO       
     PART-1-1.14314       0.00152223          9.73701          158.479       NO       
     PART-1-1.14317      0.000544707          12.7529          166.393       NO       
     PART-1-1.14319        0.0124729          16.0624          155.275       NO       
     PART-1-1.14320        0.0005048          12.3762          164.356       NO       
     PART-1-1.14372       0.00109406          11.3352          163.083       NO       
     PART-1-1.14374       0.00383346          17.1629          159.708       NO       
     PART-1-1.14381       0.00089385          12.5557          162.635       NO       
     PART-1-1.14386        0.0033722          10.3897           157.86       NO       
     PART-1-1.14390      0.000508702           7.9607          165.213       NO       
     PART-1-1.14430       0.00891623          19.3671          156.278       NO       
     PART-1-1.14437       0.00165405          11.1199          163.395       NO       
     PART-1-1.14440       0.00784247          16.6059          158.395       NO       
     PART-1-1.14443        0.0120402          12.1396          156.632       NO       
     PART-1-1.14448        0.0162681          21.4859          153.938       NO       
     PART-1-1.14513         0.012081          16.4532          155.716       NO       
     PART-1-1.14535        0.0073574          17.4471          151.949       NO       
     PART-1-1.14580       0.00254764          13.8295           160.61       NO       
     PART-1-1.14603         0.015031          15.9347          154.761       NO       
     PART-1-1.14630      0.000521655          12.3073          166.626       NO       
     PART-1-1.14631        0.0132235          20.7601          154.241       NO       
     PART-1-1.14633       0.00061497          8.65814          163.528       NO       
     PART-1-1.14635      0.000918767          8.76042          163.428       NO       
     PART-1-1.14636       0.00111395          13.8273          165.268       NO       
     PART-1-1.14649        0.0107257          14.8731          156.509       NO       
     PART-1-1.14652        0.0184876           21.926          151.549       NO       
     PART-1-1.14693      0.000536499          8.19782          165.161       NO       
     PART-1-1.14702        0.0146953          12.5797          151.656       NO       
     PART-1-1.14704        0.0122337          19.1613          155.584       NO       
     PART-1-1.14706       0.00321394          16.8579          161.297       NO       
     PART-1-1.14708       0.00259147          10.5522          160.131       NO       
     PART-1-1.14710       0.00277493           12.811          160.838       NO       
     PART-1-1.14714       0.00114309           13.596          161.365       NO       
     PART-1-1.14717      0.000685523          10.1912          164.945       NO       
     PART-1-1.14719       0.00402788          11.2697          155.993       NO       
     PART-1-1.14720       0.00265103          12.7906          160.327       NO       
     PART-1-1.14721       0.00225343           15.054          162.802       NO       
     PART-1-1.14727        0.0173579           22.653          152.997       NO       
     PART-1-1.14730        0.0035541          15.1919          156.546       NO       
     PART-1-1.14736       0.00215238          9.27355          161.036       NO       
     PART-1-1.14737        0.0132647          13.1883          154.459       NO       
     PART-1-1.14753        0.0190218          12.3689          152.916       NO       
     PART-1-1.14756       0.00189078          14.7212          159.311       NO       
     PART-1-1.14757       0.00786881          11.3012          153.855       NO       
     PART-1-1.14762       0.00186806          12.6875          161.865       NO       
     PART-1-1.14766       0.00402178          11.4149          158.193       NO       
     PART-1-1.14771       0.00412866          13.8332          159.435       NO       
     PART-1-1.14772         0.019563          20.5657          152.784       NO       
     PART-1-1.14776        0.0196828          11.6714          154.516       NO       
     PART-1-1.14783       0.00285378          10.1046          158.065       NO       
     PART-1-1.14785       0.00391834          16.3005          155.607       NO       
     PART-1-1.14786       0.00378322          17.0182          160.347       NO       
     PART-1-1.14789       0.00115086           11.623          162.982       NO       
     PART-1-1.14790        0.0184923          12.6371          150.777       NO       
     PART-1-1.14791       0.00065099          8.53448          164.106       NO       
     PART-1-1.14799        0.0113415          19.3678          155.181       NO       
     PART-1-1.14866        0.0138766          13.1422          154.158       NO       
     PART-1-1.14879        0.0198182          12.1572          154.262       NO       
     PART-1-1.14904        0.0187073          13.6181          152.679       NO       
     PART-1-1.14920        0.0180629          16.7481          153.577       NO       
     PART-1-1.14992       0.00392294          10.0913          158.746       NO       
     PART-1-1.14998        0.0178926          21.0432          153.651       NO       
     PART-1-1.15006       0.00506323          14.3678          157.716       NO       
     PART-1-1.15022       0.00491193          15.6785          154.928       NO       
     PART-1-1.15033       0.00288837          16.9261          161.633       NO       
     PART-1-1.15036       0.00319204          13.6867          159.869       NO       
     PART-1-1.15043       0.00235843          10.5506          159.758       NO       
     PART-1-1.15048       0.00852218          11.1699          154.473       NO       
     PART-1-1.15053       0.00191443          14.3633          159.424       NO       
     PART-1-1.15063       0.00322484          9.67186          161.301       NO       
     PART-1-1.15067       0.00661017           17.122          152.683       NO       
     PART-1-1.15068       0.00291994          12.5687          160.552       NO       
     PART-1-1.15079       0.00344936          15.3237          156.644       NO       
     PART-1-1.15084       0.00364654          10.0678          159.653       NO       
     PART-1-1.15099        0.0194876           13.059          153.217       NO       
     PART-1-1.15103        0.0176131          17.4941          153.029       NO       
     PART-1-1.15159      0.000573906           10.627          164.954       NO       
     PART-1-1.15160       0.00164589          15.0474          163.075       NO       
     PART-1-1.15196       0.00200141          12.5656          161.935       NO       
     PART-1-1.15200        0.0124205          12.2337          151.592       NO       
     PART-1-1.15223       0.00279564          15.7301          157.325       NO       
     PART-1-1.15258        0.0162825          13.1241          153.913       NO       
     PART-1-1.15328       0.00849432          19.5526          157.346       NO       
     PART-1-1.15331       0.00697895          15.4403          156.128       NO       
     PART-1-1.15334       0.00231931          9.94421          160.211       NO       
     PART-1-1.15338       0.00286775          10.1526          159.677       NO       
     PART-1-1.15341       0.00358619          17.0972          161.247       NO       
     PART-1-1.15344       0.00392221          10.7629          159.404       NO       
     PART-1-1.15359       0.00499367          17.7928          159.735       NO       
     PART-1-1.15361       0.00492512          13.6505          158.748       NO       
     PART-1-1.15364        0.0063433          17.1077          152.908       NO       
[...]
     PART-1-1.18017       0.00232386          10.4188          160.208       NO       
     PART-1-1.18018       0.00569438          14.1748          157.287       NO       
     PART-1-1.18019       0.00062267          8.55534          164.088       NO       
     PART-1-1.18020       0.00358894          16.2066          161.658       NO       
     PART-1-1.18022       0.00299896          10.2447          159.767       NO       
     PART-1-1.18023       0.00344538          16.8128          160.614       NO       
     PART-1-1.18025       0.00106957          11.5699          163.187       NO       
     PART-1-1.18026      0.000677692          12.2397          163.616       NO       
     PART-1-1.18028       0.00238902           9.8718          158.519       NO       
     PART-1-1.18029       0.00240117          15.4086            161.9       NO       
     PART-1-1.18036       0.00289622          13.1802          160.419       NO       
     PART-1-1.18039      0.000439693           12.116          167.141       NO       
     PART-1-1.18042      0.000466756          11.8471          164.771       NO       
     PART-1-1.18055       0.00244489           15.005          158.175       NO       
     PART-1-1.18073       0.00432211          13.4595          158.794       NO       
     PART-1-1.18096       0.00314088          16.1112          161.031       NO       
     PART-1-1.18138        0.0028911           16.796          161.589       NO       
     PART-1-1.18148       0.00338203          10.1392          159.036       NO       
     PART-1-1.18224         0.002605           13.314          160.655       NO       
     PART-1-1.18240        0.0192912          20.6556          144.292       NO       
     PART-1-1.18253       0.00159054          11.9262          162.891       NO       
     PART-1-1.18254        0.0129147          12.6737          150.741       NO       
     PART-1-1.18263       0.00301843          15.9848          161.966       NO       
     PART-1-1.18267       0.00238555          9.80251          161.461       NO       
     PART-1-1.18269       0.00294429          16.2829          160.901       NO       
     PART-1-1.18284       0.00400658          14.9822          156.195       NO       
     PART-1-1.18295       0.00615086          17.6836           159.33       NO       
     PART-1-1.18299       0.00294791          16.8295          160.685       NO       
     PART-1-1.18300       0.00214956          12.7805          161.622       NO       
     PART-1-1.18323       0.00458944          15.5024          155.292       NO       
     PART-1-1.18372      0.000642984          12.4164          166.775       NO       
     PART-1-1.18373       0.00299823          16.6209           160.83       NO       
     PART-1-1.18378       0.00371143          10.8099          157.923       NO       
     PART-1-1.18383       0.00361681          11.1436          157.591       NO       
     PART-1-1.18384       0.00228629          9.26204          161.217       NO       
     PART-1-1.18403        0.0178745          11.9967           154.46       NO       
     PART-1-1.18413       0.00289307          15.9045           162.48       NO       
     PART-1-1.18422         0.017978          20.3129          144.984       NO       
     PART-1-1.18483        0.0139327          16.0335          155.107       NO       
     PART-1-1.18517        0.0129162          19.7339            155.1       NO       
     PART-1-1.18518       0.00895406          18.9379          156.192       NO       
     PART-1-1.18519       0.00302444          13.2005          160.267       NO       
     PART-1-1.18520       0.00291619          16.6307          161.718       NO       
     PART-1-1.18532        0.0146832          17.3994          154.528       NO       
     PART-1-1.18557       0.00173898          14.2856          159.858       NO       
     PART-1-1.18560        0.0170123          20.4256          145.208       NO       
     PART-1-1.18563         0.007732           10.695          154.651       NO       
     PART-1-1.18590       0.00361232           11.287          156.738       NO       
     PART-1-1.18596       0.00744898           16.881          158.975       NO       
     PART-1-1.18599       0.00234019          9.43566          161.533       NO       
     PART-1-1.18605        0.0029743           15.832          162.271       NO       
     PART-1-1.18653        0.0192154          13.4128          153.642       NO       
     PART-1-1.18655      0.000609623          12.3005          167.053       NO       
     PART-1-1.18656       0.00358734          16.9174          160.808       NO       
     PART-1-1.18657       0.00478895          11.3473          157.405       NO       
     PART-1-1.18686       0.00371892          17.5729          160.834       NO       
     PART-1-1.18692        0.0149867          11.9799          155.315       NO       
     PART-1-1.18693        0.0171338          20.8514          153.497       NO       
     PART-1-1.18695       0.00936496          17.5337          150.667       NO       
     PART-1-1.18696       0.00295065          15.1603           161.69       NO       
     PART-1-1.18700        0.0177044          21.7166          152.152       NO       
     PART-1-1.18731       0.00684477          17.1381           158.03       NO       
     PART-1-1.18739         0.007516           16.534          158.681       NO       
     PART-1-1.18740       0.00244476          11.0394          159.662       NO       
     PART-1-1.18741        0.0124638          11.6124          154.213       NO       
     PART-1-1.18742       0.00954112          19.7591          155.811       NO       
     PART-1-1.18743       0.00341742          16.7581          160.968       NO       
     PART-1-1.18746       0.00476834          9.74625          159.437       NO       
     PART-1-1.18749       0.00159836          11.0004          163.466       NO       
     PART-1-1.18751       0.00298338          17.1238          161.191       NO       
     PART-1-1.18752       0.00337836          16.1439           156.28       NO       
     PART-1-1.19195         0.019918            23.91           148.95       NO       
     PART-1-1.19233        0.0048609          24.2569          140.165       NO       
     PART-1-1.19254       0.00793203          17.2493          155.755       NO       
     PART-1-1.19255        0.0123527          18.6418          143.359       NO       
     PART-1-1.20119        0.0164396          29.2828          152.387       NO       
     PART-1-1.20222       0.00453145          20.0823          140.356       NO       
     PART-1-1.20225        0.0114514          13.5015          160.125       NO       
     PART-1-1.20796       0.00223016          18.0166          160.497       NO       
     PART-1-1.20851       0.00109098          11.1909          157.346       NO       
     PART-1-1.20875      0.000626582          13.4982          165.953       NO       
     PART-1-1.22849       0.00168816          12.9322          157.255       NO       
     PART-1-1.24429       0.00672279          27.8011          157.265       NO       
     PART-1-1.24432       0.00811324          16.4268          162.369       NO       
     PART-1-1.24444       0.00811587           16.429          162.367       NO       
     PART-1-1.24459       0.00811614          16.4292          162.367       NO       
     PART-1-1.24483       0.00811613          16.4291          162.367       NO       
     PART-1-1.24491       0.00811006          16.4258          162.371       NO       
     PART-1-1.24506       0.00811424          16.4274          162.368       NO       
     PART-1-1.24601        0.0187663          24.2287          153.336       NO       
     PART-1-1.24732       0.00811633          16.4292          162.367       NO       
     PART-1-1.25153       0.00524237          17.3325          160.164       NO       
     PART-1-1.25154       0.00212583          25.4351          162.366       NO       
     PART-1-1.25203       0.00811397          16.4272          162.368       NO       
     PART-1-1.25214       0.00583698          17.7972           159.68       NO       
     PART-1-1.25234        0.0162748          19.8064          149.827       NO       
     PART-1-1.25242       0.00672309          27.8021          157.264       NO       
     PART-1-1.25250       0.00352182          16.3137          161.951       NO       
     PART-1-1.25257       0.00811411          16.4272          162.368       NO       
     PART-1-1.25264        0.0162746          19.8065          149.827       NO       
     PART-1-1.25272       0.00672276          27.8019          157.264       NO       
     PART-1-1.25282       0.00811346          16.4272          162.369       NO       
     PART-1-1.25369       0.00352107          16.3129          161.952       NO       
     PART-1-1.25376       0.00672219          27.8008          157.265       NO       
     PART-1-1.25389        0.0156034          19.2088          148.649       NO       
     PART-1-1.25392       0.00811008          16.4251          162.371       NO       
     PART-1-1.25397        0.0187662          24.2288          153.336       NO       
     PART-1-1.25420        0.0187667          24.2287          153.336       NO       
     PART-1-1.25451        0.0113831          30.0054          152.677       NO       
     PART-1-1.25459        0.0111603          19.8787           152.75       NO       
     PART-1-1.25465       0.00987301          16.2991           159.93       NO       
     PART-1-1.25480        0.0081098          16.4249          162.371       NO       
     PART-1-1.25487       0.00811072          16.4259           162.37       NO       
     PART-1-1.25511       0.00811503          16.4272          162.368       NO       
     PART-1-1.25516       0.00811114          16.4262           162.37       NO       
     PART-1-1.25518        0.0108541          25.4305          156.317       NO       
     PART-1-1.25524       0.00672298          27.8018          157.264       NO       
     PART-1-1.25531       0.00672293          27.8018          157.264       NO       
     PART-1-1.25554        0.0162736          19.8062          149.827       NO       
     PART-1-1.25563       0.00811076          16.4276          162.369       NO       
     PART-1-1.25567        0.0189612          24.5975          153.503       NO       
     PART-1-1.25570       0.00951475          23.5131          157.041       NO       
     PART-1-1.25571       0.00672328          27.8022          157.264       NO       
     PART-1-1.25580        0.0189605          24.5973          153.503       NO       
     PART-1-1.26172       0.00672313          27.8017          157.264       NO       
     PART-1-1.27936       0.00811635          16.4292          162.367       NO       
     PART-1-1.28004        0.0103056          20.7432          155.078       NO       
     PART-1-1.29500      0.000851107          9.66881          157.346       NO       
     PART-1-1.30908       0.00811211          16.4265           162.37       NO       
     PART-1-1.30981       0.00810962          16.4249          162.371       NO       
     PART-1-1.30992       0.00811158          16.4264           162.37       NO       
     PART-1-1.31124       0.00192418          9.29931          155.604       NO       
     PART-1-1.31143       0.00672297          27.8013          157.264       NO       
     PART-1-1.31156        0.0145236          26.5069          154.229       NO       
     PART-1-1.31192       0.00951477          23.5131          157.041       NO       
     PART-1-1.31214        0.0162754          19.8065          149.827       NO       
     PART-1-1.31239        0.0162767          19.8057          149.828       NO       
     PART-1-1.31245       0.00672322          27.8023          157.264       NO       
     PART-1-1.31246       0.00812746          17.8411          157.724       NO       
     PART-1-1.31258        0.0103053           20.743          155.078       NO       
     PART-1-1.31277        0.0162754          19.8068          149.827       NO       
     PART-1-1.31291        0.0162771           19.806          149.828       NO       
     PART-1-1.31308       0.00672314          27.8023          157.264       NO       
     PART-1-1.31388       0.00811077           16.426           162.37       NO       
     PART-1-1.31394       0.00811109          16.4262           162.37       NO       
     PART-1-1.31400       0.00811046          16.4252           162.37       NO       
     PART-1-1.31423         0.178942           9.2436          162.606       NO       
     PART-1-1.31451        0.0162758          19.8056          149.828       NO       
     PART-1-1.31464       0.00811019          16.4257          162.371       NO       
     PART-1-1.31491       0.00672289          27.8013          157.264       NO       
     PART-1-1.31495        0.0113831          30.0055          152.677       NO       
     PART-1-1.31524       0.00810962          16.4249          162.371       NO       
     PART-1-1.31533       0.00811457          16.4274          162.368       NO       
     PART-1-1.31539        0.0162733          19.8059          149.828       NO       
     PART-1-1.33007         0.008112          16.4266           162.37       NO       
     PART-1-1.33019       0.00793914          20.7037          146.193       NO       
     PART-1-1.33072       0.00672293          27.8018          157.264       NO       
     PART-1-1.33076       0.00316795          25.1182           159.86       NO       
     PART-1-1.33200        0.0142841          18.0165           153.69       NO       
     PART-1-1.33245       0.00421603          13.4982          160.613       NO       
     PART-1-1.36175        0.0162748          19.8064          149.827       NO       
     PART-1-1.36220        0.0188177          24.5525           153.55       NO       
     PART-1-1.36222       0.00884126          23.8427          156.049       NO       
     PART-1-1.36244       0.00731327           28.393          157.048       NO       
     PART-1-1.36426       0.00107046          11.1909          155.247       NO       
     PART-1-1.36428       0.00480203          21.4465          148.741       NO       
     PART-1-1.36566       0.00811065          16.4274          162.369       NO       
     PART-1-1.36621         0.178942          9.24361          162.606       NO       
     PART-1-1.36634       0.00672301          27.8018          157.264       NO       
     PART-1-1.36645        0.0118674          24.2653          156.096       NO       
     PART-1-1.36658        0.0162813          19.8062          149.826       NO       
     PART-1-1.36680       0.00672153          27.8009          157.265       NO       
     PART-1-1.36702       0.00810829          16.4245          162.372       NO       
     PART-1-1.36704       0.00758812          27.9825          157.545       NO       
     PART-1-1.36743       0.00354488          26.7127          159.975       NO       
     PART-1-1.36889       0.00811039          16.4275          162.369       NO       
     PART-1-1.36909        0.0118678          24.2655          156.096       NO       
     PART-1-1.36930       0.00672233          27.8008          157.265       NO       
     PART-1-1.36957         0.016281           19.806          149.826       NO       
     PART-1-1.36992        0.0162744          19.8065          149.827       NO       
     PART-1-1.36999       0.00716915          25.6038          157.741       NO       
     PART-1-1.37071       0.00672304          27.8018          157.264       NO       
     PART-1-1.37144       0.00672284          27.8019          157.264       NO       
     PART-1-1.37167       0.00365771          18.7177          155.972       NO       
     PART-1-1.37279       0.00810871          16.4244          162.371       NO       
     PART-1-1.37292       0.00811111          16.4263           162.37       NO       
     PART-1-1.37351       0.00672306           27.802          157.264       NO       
     PART-1-1.37382       0.00451403          26.0585            158.9       NO       
     PART-1-1.37392       0.00811206          16.4265           162.37       NO       
     PART-1-1.37394        0.0081093          16.4247          162.371       NO       
     PART-1-1.37486       0.00811547          16.4275          162.367       NO       
     PART-1-1.37525       0.00810888          16.4245          162.371       NO       
  
  
  *Step, name=Step-1, nlgeom=NO, perturbation
  *output, field, variable=PRESELECT
  *Step, name=Step-1, nlgeom=NO, perturbation

 ***ERROR: NODE SET ASSEMBLY_BOTTOM_SET_PIN HAS NOT BEEN DEFINED

 ***ERROR: NODE SET ASSEMBLY_BOTTOM_SET_PIN HAS NOT BEEN DEFINED

 ***ERROR: NODE SET ASSEMBLY_TOP_SET_PIN HAS NOT BEEN DEFINED

 ***ERROR: NODE SET ASSEMBLY_TOP_SET_PIN HAS NOT BEEN DEFINED

 ***ERROR: NODE SET ASSEMBLY_TOP_SET_PIN HAS NOT BEEN DEFINED

 ***ERROR: NODE SET ASSEMBLY_TOP_SET_PIN HAS NOT BEEN DEFINED
  *Step, name=Step-1, nlgeom=NO, perturbation
  *buckle
  *boundary, op=NEW, loadcase=1
  *boundary, op=NEW, loadcase=2
  *boundary, op=NEW, loadcase=1
  *boundary, op=NEW, loadcase=2
  *dsload

 ***ERROR: THE SURFACE ASSEMBLY_TOP_SURFACE HAS NOT BEEN LOCATED
 LINE IMAGE: ASSEMBLY_TOP_SURFACE, P, 1.
  *output, field, variable=PRESELECT
  *endstep
  *Step, name=Step-1, nlgeom=NO, perturbation
  *buckle
  *buckle
  *boundary, op=NEW, loadcase=1

 ***ERROR: A BOUNDARY CONDITION HAS BEEN SPECIFIED ON NODE SET 
           ASSEMBLY_BOTTOM_SET_PIN BUT THIS NODE SET IS NOT ACTIVE IN THE MODEL
  *boundary, op=NEW, loadcase=2

 ***ERROR: A BOUNDARY CONDITION HAS BEEN SPECIFIED ON NODE SET 
           ASSEMBLY_BOTTOM_SET_PIN BUT THIS NODE SET IS NOT ACTIVE IN THE MODEL
  *boundary, op=NEW, loadcase=1

 ***ERROR: A BOUNDARY CONDITION HAS BEEN SPECIFIED ON NODE SET 
           ASSEMBLY_TOP_SET_PIN BUT THIS NODE SET IS NOT ACTIVE IN THE MODEL

 ***ERROR: A BOUNDARY CONDITION HAS BEEN SPECIFIED ON NODE SET 
           ASSEMBLY_TOP_SET_PIN BUT THIS NODE SET IS NOT ACTIVE IN THE MODEL
  *boundary, op=NEW, loadcase=2

 ***ERROR: A BOUNDARY CONDITION HAS BEEN SPECIFIED ON NODE SET 
           ASSEMBLY_TOP_SET_PIN BUT THIS NODE SET IS NOT ACTIVE IN THE MODEL

 ***ERROR: A BOUNDARY CONDITION HAS BEEN SPECIFIED ON NODE SET 
           ASSEMBLY_TOP_SET_PIN BUT THIS NODE SET IS NOT ACTIVE IN THE MODEL
  *endstep

 ***ERROR: NODE SET ASSEMBLY_BOTTOM_SET_PIN HAS NOT BEEN DEFINED

 ***ERROR: NODE SET ASSEMBLY_BOTTOM_SET_PIN HAS NOT BEEN DEFINED

 ***ERROR: NODE SET ASSEMBLY_TOP_SET_PIN HAS NOT BEEN DEFINED

 ***ERROR: NODE SET ASSEMBLY_TOP_SET_PIN HAS NOT BEEN DEFINED

 ***ERROR: NODE SET ASSEMBLY_TOP_SET_PIN HAS NOT BEEN DEFINED

 ***ERROR: NODE SET ASSEMBLY_TOP_SET_PIN HAS NOT BEEN DEFINED



                            P R O B L E M   S I Z E


          NUMBER OF ELEMENTS IS                                 38293
          NUMBER OF ELEMENTS DEFINED BY THE USER AND *TIE       38291
          NUMBER OF NODES IS                                    16013
          NUMBER OF NODES DEFINED BY THE USER                   16013
          TOTAL NUMBER OF VARIABLES IN THE MODEL                48045
          (DEGREES OF FREEDOM PLUS MAX NO. OF ANY LAGRANGE MULTIPLIER
           VARIABLES. INCLUDE *PRINT,SOLVE=YES TO GET THE ACTUAL NUMBER.)





          THE PROGRAM HAS DISCOVERED    40 FATAL ERRORS

               ** EXECUTION IS TERMINATED **

 ***ERROR: Failed to locate set "ASSEMBLY_TOP_SET_PIN".



                              END OF USER INPUT PROCESSING



     JOB TIME SUMMARY
       USER TIME (SEC)      =   1.7000    
       SYSTEM TIME (SEC)    =  0.50000    
       TOTAL CPU TIME (SEC) =   2.2000    
       WALLCLOCK TIME (SEC) =          2
