1

   Abaqus 3DEXPERIENCE R2019x                                  Date 01-May-2020   Time 23:45:08
   For use by TEXAS A_M UNIVERSITY SYSTEM under license from Dassault Systemes or its subsidiary.



                         The Abaqus Software is a product of:

                           Dassault Systemes SIMULIA Corp.
                           1301 Atwood Avenue, Suite 101W
                              Johnston, RI 02919, USA
 


                   The Abaqus Software is available only under license
                   from Dassault Systemes or its subsidiary and may be
                   used or reproduced only in accordance with the terms
                   of such license.
 
                          On machine AERO-MJ09CBE4 
                          you are authorized to run
                          Abaqus/Standard until 11-Jul-2021

                          Your site id is: 200000000002185 


 
                    For assistance or any other information you may
                    obtain contact information for your local office
                    from the world wide web at:

                      http://www.3ds.com/products/simulia/locations/

 
                * * * * * * * * * * * * * * * * * * * * * * * * * * * * * * 
                *                                                         * 
                *                   *****************                     * 
                *                   *  N O T I C E  *                     * 
                *                   *****************                     * 
                *                                                         * 
                *                                                         * 
                *               Abaqus 3DEXPERIENCE R2019x                * 
                *                                                         * 
                *          BUILD ID: 2018_09_24-13.41.51 157541           * 
                *                                                         * 
                *                                                         * 
                *  Please make sure you are using                         * 
                *  release 3DEXPERIENCE R2019x manuals                    * 
                *  plus the notes accompanying this release.              * 
                *                                                         * 
                *                                                         * 
                *                                                         * 
                *                                                         * 
                *                                                         * 
                *   This program may not be used for commercial purposes  * 
                *           without payment of a commercial fee.          * 
                *                                                         * 
                * * * * * * * * * * * * * * * * * * * * * * * * * * * * * * 


 



     PROCESSING PART, INSTANCE, AND ASSEMBLY INFORMATION
   *******************************************************


     END PROCESSING PART, INSTANCE, AND ASSEMBLY INFORMATION
   ***********************************************************




     OPTIONS BEING PROCESSED
   ***************************


  *Heading
  *Node
  *Element, type=C3D4
  *Nset, nset=ASSEMBLY_PART-1-1_FIBRE_SET2
  *Nset, nset=ASSEMBLY_PART-1-1_FIBRE_SET3
  *Nset, nset=ASSEMBLY_PART-1-1_FIBRE_SET4
  *Nset, nset=ASSEMBLY_PART-1-1_MATRIX_SET
  *Elset, elset=ASSEMBLY_PART-1-1_FIBRE_SET2
  *Elset, elset=ASSEMBLY_PART-1-1_FIBRE_SET3
  *Elset, elset=ASSEMBLY_PART-1-1_FIBRE_SET4
  *Elset, elset=ASSEMBLY_PART-1-1_MATRIX_SET
  *Node
  *Nset, nset=ASSEMBLY_BOTTOM_SET_PIN
  *Nset, nset=ASSEMBLY_TOP_SET_PIN
  *Nset, nset=ASSEMBLY__PICKEDSET19
  *Nset, nset=ASSEMBLY__PICKEDSET21
  *Elset, elset=ASSEMBLY_BOTTOM_SET_PIN
  *Elset, elset=ASSEMBLY_TOP_SET_PIN
  *Elset, elset=ASSEMBLY__TOP_SURFACE_S1
  *Elset, elset=ASSEMBLY__TOP_SURFACE_S2
  *Elset, elset=ASSEMBLY__TOP_SURFACE_S3
  *Elset, elset=ASSEMBLY__TOP_SURFACE_S4

 ***WARNING: BUCKLE OPTION IS NOT SUPPORTED FOR ELEMENT LOOP PARALLELIZATION. 
             IF YOU HAVE SPECIFIED ELEMENT LOOP PARALLELIZATION, IT WILL BE 
             TURNED OFF FOR THIS ANALYSIS.
 LINE IMAGE: *buckle
  *material, name=FIBRE_MATERIAL
  *elastic
  *material, name=MATRIX_MATERIAL
  *elastic
  *solidsection, elset=ASSEMBLY_PART-1-1_MATRIX_SET, material=MATRIX_MATERIAL
  *solidsection, elset=ASSEMBLY_PART-1-1_FIBRE_SET2, material=FIBRE_MATERIAL
  *solidsection, elset=ASSEMBLY_PART-1-1_FIBRE_SET3, material=FIBRE_MATERIAL
  *solidsection, elset=ASSEMBLY_PART-1-1_FIBRE_SET4, material=FIBRE_MATERIAL
  *solidsection, elset=ASSEMBLY_PART-1-1_MATRIX_SET, material=MATRIX_MATERIAL
  *solidsection, elset=ASSEMBLY_PART-1-1_FIBRE_SET2, material=FIBRE_MATERIAL
  *solidsection, elset=ASSEMBLY_PART-1-1_FIBRE_SET3, material=FIBRE_MATERIAL
  *solidsection, elset=ASSEMBLY_PART-1-1_FIBRE_SET4, material=FIBRE_MATERIAL
  *rigidbody, refnode=ASSEMBLY__PICKEDSET19, pinnset=ASSEMBLY_TOP_SET_PIN
  *rigidbody, refnode=ASSEMBLY__PICKEDSET21, pinnset=ASSEMBLY_BOTTOM_SET_PIN
  *rigidbody, refnode=ASSEMBLY__PICKEDSET19, pinnset=ASSEMBLY_TOP_SET_PIN
  *rigidbody, refnode=ASSEMBLY__PICKEDSET21, pinnset=ASSEMBLY_BOTTOM_SET_PIN
  *rigidbody, refnode=ASSEMBLY__PICKEDSET19, pinnset=ASSEMBLY_TOP_SET_PIN
  *rigidbody, refnode=ASSEMBLY__PICKEDSET21, pinnset=ASSEMBLY_BOTTOM_SET_PIN
  *rigidbody, refnode=ASSEMBLY__PICKEDSET19, pinnset=ASSEMBLY_TOP_SET_PIN
  *rigidbody, refnode=ASSEMBLY__PICKEDSET21, pinnset=ASSEMBLY_BOTTOM_SET_PIN
  *surface, type=ELEMENT, name=ASSEMBLY_TOP_SURFACE
  *surface, type=ELEMENT, name=ASSEMBLY_TOP_SURFACE
  *rigidbody, refnode=ASSEMBLY__PICKEDSET19, pinnset=ASSEMBLY_TOP_SET_PIN
  *rigidbody, refnode=ASSEMBLY__PICKEDSET21, pinnset=ASSEMBLY_BOTTOM_SET_PIN
  *rigidbody, refnode=ASSEMBLY__PICKEDSET19, pinnset=ASSEMBLY_TOP_SET_PIN
  *rigidbody, refnode=ASSEMBLY__PICKEDSET21, pinnset=ASSEMBLY_BOTTOM_SET_PIN
  *rigidbody, refnode=ASSEMBLY__PICKEDSET19, pinnset=ASSEMBLY_TOP_SET_PIN
  *rigidbody, refnode=ASSEMBLY__PICKEDSET21, pinnset=ASSEMBLY_BOTTOM_SET_PIN
  *boundary, op=NEW, loadcase=1
  *boundary, op=NEW, loadcase=2
  *boundary, op=NEW, loadcase=1
  *boundary, op=NEW, loadcase=2
  *boundary, op=NEW, loadcase=1
  *boundary, op=NEW, loadcase=2
  *boundary, op=NEW, loadcase=1
  *boundary, op=NEW, loadcase=2
  *rigidbody, refnode=ASSEMBLY__PICKEDSET19, pinnset=ASSEMBLY_TOP_SET_PIN
  *rigidbody, refnode=ASSEMBLY__PICKEDSET21, pinnset=ASSEMBLY_BOTTOM_SET_PIN
  *surface, type=ELEMENT, name=ASSEMBLY_TOP_SURFACE
  *output, field, variable=PRESELECT
  *output, field, variable=PRESELECT
  *output, field, variable=PRESELECT
  
                               E L E M E N T   Q U A L I T Y  C H E C K S        
  
  
 ***NOTES: DISTORTED ISOPARAMETRIC ELEMENTS: ANGLE BETWEEN ISOPARAMETRIC LINES 
           IS LESS THAN 45 DEGREES OR GREATER THAN 135 DEGREES.
  
           TETRAHEDRAL QUALITY MEASURE: VOLUME OF TETRAHEDRON DIVIDED BY THE 
           VOLUME OF EQUILATERAL TETRAHEDRON WITH SAME CIRCUMSPHERE RADIUS; 
           0 FOR DEGENERATE TETRAHEDRON AND 1 FOR EQUILATERIAL TETRAHEDRON. IT 
           IS RECOMMENDED THAT THE TETRAHEDRAL QUALITY MEASURE BE GREATER THAN 
           0.02, THE MIN INTERIOR (DIHEDRAL) ANGLE BE GREATER THAN 10 DEGREES, 
           AND THE MAX INTERIOR (DIHEDRAL) ANGLE BE LESS THAN 160 DEGREES. 
  
           MODIFIED TETRAHEDRAL QUALITY MEASURE: ANGLES BETWEEN THE TWO LINE 
           SEGMENTS ON EACH EDGE; THE EDGES OF MODIFIED TETRAHEDRAL SHOULD BE 
           AS STRAIGHT AS POSSIBLE. IT IS RECOMMENDED THAT THE ANGLE BETWEEN 
           THE TWO LINE SEGMENTS ON EACH EDGE IS BETWEEN 160 AND 180 DEGREES. 
  
           TRIANGULAR QUALITY MEASURE: AREA OF TRIANGLE DIVIDED BY THE AREA OF 
           EQUILATERAL TRIANGLE WITH SAME CIRCUMCIRCLE RADIUS; 0 FOR DEGENERATE 
           TRIANGLE AND 1 FOR EQUILATERAL TRIANGLE. IT IS RECOMMENDED THAT THE
           TRIANGULAR QUALITY MEASURE BE GREATER THAN 0.01, THE MIN INTERIOR 
           ANGLE BE GREATER THAN 10 DEGREES, AND THE MAX INTERIOR ANGLE BE LESS 
           THAN 160 DEGREES. 
  
           NODAL ADJUSTMENTS ARISING FROM CONTACT INTERACTIONS AND/OR TIE 
           CONSTRAINTS CAN CAUSE SEVERE ELEMENT DISTORTION. IT MAY BE NECESSARY 
           TO REMESH IN ORDER TO REDUCE THE AMOUNT OF ADJUSTMENT. 

 ***WARNING: 23711 elements are distorted. Either the isoparametric angles are 
             out of the suggested limits or the triangular or tetrahedral 
             quality measure is bad. The elements have been identified in 
             element set WarnElemDistorted.

 ***ERROR: The volume of 145 elements is zero, small, or negative. Check 
           coordinates or node numbering, or modify the mesh seed. In the case 
           of a tetrahedron this error may indicate that all nodes are located 
           very nearly in a plane. The elements have been identified in element 
           set ErrElemVolSmallNegZero.
 ***NOTE: DUE TO AN INPUT ERROR THE ANALYSIS PRE-PROCESSOR HAS BEEN UNABLE TO 
          INTERPRET SOME DATA.  SUBSEQUENT ERRORS MAY BE CAUSED BY THIS OMISSION
  
 --------------------------------------------------------------------------------
 Distorted tetrahedral elements
  
      Element       Quality measure     Min angle        Max angle     Adjusted nodes 
 ------------------ ---------------- ---------------- ---------------- -------------- 
        PART-1-1.15         0.128902          7.88565          141.318       NO       
        PART-1-1.19        0.0050715          14.7974          154.412       NO       
        PART-1-1.97        0.0825774          7.16369          153.099       NO       
       PART-1-1.102       0.00325969          10.2984          162.368       NO       
       PART-1-1.107       0.00285856          12.5068          161.695       NO       
       PART-1-1.248        0.0147473          47.3485          130.446       NO       
       PART-1-1.275       0.00981356          16.6169          143.375       NO       
       PART-1-1.313       0.00929617           22.592          137.386       NO       
       PART-1-1.378         0.017802          23.0157           131.36       NO       
       PART-1-1.398        0.0107826          14.5174          137.152       NO       
       PART-1-1.452       0.00548931          23.0164          142.629       NO       
       PART-1-1.517        0.0153544           21.962          149.963       NO       
       PART-1-1.579         0.114914          8.45041          154.438       NO       
       PART-1-1.617       0.00134402          5.52096          147.883       NO       
       PART-1-1.861        0.0109966          15.0884          147.001       NO       
       PART-1-1.927        0.0267049          8.17663          129.928       NO       
       PART-1-1.980         0.030702          7.10223          107.107       NO       
      PART-1-1.1081        0.0169024          8.62918          139.098       NO       
      PART-1-1.1138       0.00316433          8.97663          158.363       NO       
      PART-1-1.1148        0.0165245          31.9788          111.141       NO       
      PART-1-1.1167        0.0109457          20.0011          125.728       NO       
      PART-1-1.1182       0.00793768          36.5131          146.277       NO       
      PART-1-1.1203        0.0148446          35.4909          116.445       NO       
      PART-1-1.1208        0.0127174          6.29219           150.17       NO       
      PART-1-1.1222        0.0154615          29.4318          127.018       NO       
      PART-1-1.1239       0.00404488          15.0884          153.412       NO       
      PART-1-1.1338        0.0120039           23.697           135.36       NO       
      PART-1-1.1401       0.00411095          8.87136          156.806       NO       
      PART-1-1.1638          0.01304          11.2929          159.244       NO       
      PART-1-1.1683        0.0123652          26.2223          149.132       NO       
      PART-1-1.1779       0.00486216           18.263          119.568       NO       
      PART-1-1.1901        0.0972886          9.99589          157.034       NO       
      PART-1-1.2016        0.0175799          19.4428          145.804       NO       
      PART-1-1.2027        0.0144791          7.78648          148.747       NO       
      PART-1-1.2073       0.00156045          26.5027          115.905       NO       
      PART-1-1.2160       0.00381348          27.9533           132.83       NO       
      PART-1-1.2245        0.0175806          23.9167          141.666       NO       
      PART-1-1.2248        0.0050405          20.7234          153.591       NO       
      PART-1-1.2332       0.00536907          12.9086          133.505       NO       
      PART-1-1.2335       0.00958818          52.2034          144.538       NO       
      PART-1-1.2340       0.00597013          31.0732          141.898       NO       
      PART-1-1.2346        0.0131294          24.4544          137.939       NO       
      PART-1-1.2347       0.00817868          37.4614          108.354       NO       
      PART-1-1.2595        0.0100875          13.1848          151.155       NO       
      PART-1-1.2608       0.00887478          29.1179          153.895       NO       
      PART-1-1.2612        0.0187193          16.9803          148.974       NO       
      PART-1-1.2685       0.00514824          14.7086          155.798       NO       
      PART-1-1.2733       0.00155602          15.9664          158.418       NO       
      PART-1-1.2734        0.0124678          13.5982          140.726       NO       
      PART-1-1.2751         0.136285          12.8122          160.106       NO       
      PART-1-1.2820       0.00490254          36.1274          146.518       NO       
      PART-1-1.2821       0.00468951          28.1671          132.074       NO       
      PART-1-1.2845        0.0168034           19.621          151.544       NO       
      PART-1-1.2993       0.00702906          20.5857           130.45       NO       
      PART-1-1.3000        0.0172888          17.0206          143.773       NO       
      PART-1-1.3154       0.00256299          12.3728          153.412       NO       
      PART-1-1.3414       0.00536211          19.4365          159.406       NO       
      PART-1-1.3571        0.0171673          12.4114          150.354       NO       
      PART-1-1.3610        0.0128557          14.1099          143.781       NO       
      PART-1-1.3663       0.00843366          10.2683          150.857       NO       
      PART-1-1.3886        0.0115898          13.2911          139.862       NO       
      PART-1-1.3982        0.0122531          15.3703          143.033       NO       
      PART-1-1.4256        0.0954209           9.4345          133.348       NO       
      PART-1-1.4310        0.0190168          9.56128          154.045       NO       
      PART-1-1.4503        0.0105524          30.8244          134.601       NO       
      PART-1-1.4663         0.012335          11.4103          109.317       NO       
      PART-1-1.4684       0.00405109          19.0144          143.891       NO       
      PART-1-1.4841        0.0132907          21.9952           144.64       NO       
      PART-1-1.4843        0.0181065          8.81672          146.513       NO       
      PART-1-1.4845        0.0172614          24.4952          123.466       NO       
      PART-1-1.4847        0.0040659           16.633          148.627       NO       
      PART-1-1.4877        0.0048566          9.48376          161.654       NO       
      PART-1-1.5016        0.0146314          21.9993          141.281       NO       
      PART-1-1.5029        0.0137535           30.026          151.275       NO       
      PART-1-1.5423       0.00519517          7.32976          140.289       NO       
      PART-1-1.5445         0.169181          9.36002          119.526       NO       
      PART-1-1.5477       0.00946085          10.8075          151.291       NO       
      PART-1-1.5478       0.00507017           10.261           161.32       NO       
      PART-1-1.5488        0.0894545          12.0973          161.016       NO       
      PART-1-1.5716        0.0184488          13.1868          141.156       NO       
      PART-1-1.5797       0.00202706          14.6705          158.359       NO       
      PART-1-1.5811        0.0119746          13.1625          162.921       NO       
      PART-1-1.5815         0.012926          26.4652          143.435       NO       
      PART-1-1.5816        0.0148754          29.1913          120.904       NO       
      PART-1-1.5952        0.0167903          11.6354          141.869       NO       
      PART-1-1.6027       0.00713617          14.4447          148.982       NO       
      PART-1-1.6070       0.00752711          16.5852          145.547       NO       
      PART-1-1.6093        0.0185732          3.48264          112.336       NO       
      PART-1-1.6094       0.00927432          2.67468          115.825       NO       
      PART-1-1.6129        0.0170709          17.9264          150.889       NO       
      PART-1-1.6329        0.0139843          23.5372          130.883       NO       
      PART-1-1.6364        0.0102036          25.7845          147.019       NO       
      PART-1-1.6457        0.0138953            37.01          129.612       NO       
      PART-1-1.6493         0.206573          9.18921          133.934       NO       
      PART-1-1.6599        0.0151627           9.3357          152.145       NO       
      PART-1-1.6633      0.000715166          9.48979          163.704       NO       
      PART-1-1.6665        0.0142508          12.3759          135.942       NO       
      PART-1-1.6667        0.0568413          7.41969          132.912       NO       
      PART-1-1.6677         0.016206          17.6688          140.936       NO       
      PART-1-1.6732        0.0191249          18.5299          141.913       NO       
      PART-1-1.6748         0.117842          9.47802          122.991       NO       
      PART-1-1.6772        0.0184904          10.9032          134.653       NO       
      PART-1-1.6798       0.00829865          7.50469          131.233       NO       
      PART-1-1.6862       0.00445993           8.3015          131.059       NO       
      PART-1-1.6904        0.0167268          26.3895          137.506       NO       
      PART-1-1.6927        0.0115779           51.954          148.917       NO       
      PART-1-1.7056        0.0166246          18.7054          137.478       NO       
      PART-1-1.7140        0.0125518          18.0949          144.992       NO       
      PART-1-1.7155        0.0166412          24.3435          150.119       NO       
      PART-1-1.7160       0.00582163          42.6522          141.301       NO       
      PART-1-1.7177        0.0228775          8.55394          148.837       NO       
      PART-1-1.7229       0.00955648          20.4131          126.508       NO       
      PART-1-1.7276        0.0191383           22.319          141.462       NO       
      PART-1-1.7281       0.00969355          22.5858          154.769       NO       
      PART-1-1.7349       0.00258881           24.891          152.428       NO       
      PART-1-1.7355       0.00456792          19.1577          141.301       NO       
      PART-1-1.7363        0.0164218          39.0923          143.704       NO       
      PART-1-1.7380        0.0168631          15.1673          149.271       NO       
      PART-1-1.7423       0.00146619          11.6863          166.376       NO       
      PART-1-1.7448        0.0157888          19.5351          135.032       NO       
      PART-1-1.7465        0.0104585          11.3505          141.042       NO       
      PART-1-1.7468        0.0132406            22.58          143.568       NO       
      PART-1-1.7471        0.0178723          10.8045          140.971       NO       
      PART-1-1.7572       0.00816065          28.0272          146.525       NO       
      PART-1-1.7624        0.0184516          34.4249          135.987       NO       
      PART-1-1.7635        0.0132588          30.1376          126.523       NO       
      PART-1-1.7697       0.00206351          18.7767          155.927       NO       
      PART-1-1.7763        0.0140778          11.5231          162.592       NO       
      PART-1-1.8016        0.0151131          26.0474          148.141       NO       
      PART-1-1.8107       0.00755406           29.687          126.767       NO       
      PART-1-1.8201        0.0115064          8.86232          154.081       NO       
      PART-1-1.8326        0.0190727          26.9025          147.999       NO       
      PART-1-1.8368        0.0030133          16.3472          145.931       NO       
      PART-1-1.8586       0.00770965          30.0966          146.166       NO       
      PART-1-1.8599        0.0095589          13.6476          156.693       NO       
      PART-1-1.8614        0.0154582           14.653          145.479       NO       
      PART-1-1.8627        0.0160493          16.2924          146.189       NO       
      PART-1-1.8686        0.0046339          6.41841           155.53       NO       
      PART-1-1.8711       0.00398658          9.85647          157.946       NO       
      PART-1-1.8805       0.00797177          14.9917          150.916       NO       
      PART-1-1.8830       0.00582563          15.6549          144.951       NO       
      PART-1-1.9019       0.00723866          10.8564          143.796       NO       
      PART-1-1.9026       0.00375107          25.4366          152.817       NO       
      PART-1-1.9027        0.0190783          33.9221          135.861       NO       
      PART-1-1.9054       0.00749802          8.88454          143.914       NO       
      PART-1-1.9135        0.0371932          6.72708          136.969       NO       
      PART-1-1.9388       0.00104444           35.726          153.455       NO       
      PART-1-1.9419        0.0127548          17.7677          140.794       NO       
      PART-1-1.9496        0.0156981          16.0362          125.861       NO       
      PART-1-1.9541        0.0161799          15.9419           144.08       NO       
      PART-1-1.9543       0.00518391          7.06503          157.705       NO       
      PART-1-1.9880        0.0131142          13.4299          159.701       NO       
      PART-1-1.9943      0.000668635          37.4328          153.759       NO       
      PART-1-1.9950        0.0056504          19.6046          156.451       NO       
     PART-1-1.10070       0.00140258          12.4722          160.577       NO       
     PART-1-1.10077        0.0167566          19.6035          129.193       NO       
     PART-1-1.10136       0.00921421          9.75139           155.32       NO       
     PART-1-1.10143       0.00880806           14.268          149.215       NO       
     PART-1-1.10153        0.0670086          7.31098          161.388       NO       
     PART-1-1.10306        0.0187873          16.3788          149.306       NO       
     PART-1-1.10313        0.0485413          9.81507          153.508       NO       
     PART-1-1.10328       0.00686514          15.4361          143.968       NO       
     PART-1-1.10339       0.00534348          24.2968          153.905       NO       
     PART-1-1.10348       0.00204143          19.9878          149.067       NO       
     PART-1-1.10381       0.00843807          24.0335          125.145       NO       
     PART-1-1.10514       0.00312173          24.0655          148.054       NO       
     PART-1-1.10555        0.0119432           21.654          143.782       NO       
     PART-1-1.10588        0.0130188          25.6808          150.687       NO       
     PART-1-1.10793        0.0991951           9.4092          118.215       NO       
     PART-1-1.10797       0.00560327          14.7987          147.378       NO       
     PART-1-1.10832        0.0126765          15.4203           146.85       NO       
     PART-1-1.10871        0.0123307          10.0416          146.887       NO       
     PART-1-1.10873        0.0194126          22.3573          125.669       NO       
     PART-1-1.10883        0.0143006          13.9681          141.063       NO       
     PART-1-1.10890        0.0051309          14.1152          147.045       NO       
     PART-1-1.10895        0.0169506          17.5059          143.543       NO       
     PART-1-1.10942       0.00499111          22.3834          153.557       NO       
     PART-1-1.10970         0.010921          11.5113          150.009       NO       
     PART-1-1.10984       0.00384275          8.63795          149.612       NO       
     PART-1-1.10992        0.0120477          8.99151          128.893       NO       
     PART-1-1.10995       0.00326241          9.73024          145.988       NO       
     PART-1-1.10996       0.00667307          39.1281          133.495       NO       
     PART-1-1.11193        0.0060807          25.1566          157.049       NO       
     PART-1-1.11257        0.0106692          7.25382          139.579       NO       
     PART-1-1.11346       0.00846301          22.0202          141.289       NO       
     PART-1-1.11384         0.019815          31.1248          123.837       NO       
     PART-1-1.11494         0.013636          12.5882           129.79       NO       
     PART-1-1.11558       0.00592055          7.51314          146.271       NO       
     PART-1-1.11741        0.0137929           32.207          124.354       NO       
     PART-1-1.11891      0.000560218          6.63157          168.718       NO       
     PART-1-1.11935        0.0634201          9.84426           140.58       NO       
     PART-1-1.11960        0.0802741          6.72411          95.5949       NO       
     PART-1-1.11968        0.0124922          20.3789          129.428       NO       
     PART-1-1.12066        0.0191341            27.65          114.423       NO       
     PART-1-1.12281        0.0775943          9.98531          122.386       NO       
     PART-1-1.12284       0.00963786          27.6683          121.292       NO       
     PART-1-1.12387        0.0105467          18.8381          144.238       NO       
     PART-1-1.12408        0.0125514          12.7986          127.037       NO       
     PART-1-1.12455        0.0132143          11.3064          137.926       NO       
     PART-1-1.12487       0.00175522           13.973          149.357       NO       
     PART-1-1.12488       0.00269876          9.37519           152.79       NO       
     PART-1-1.12545        0.0186944          36.4896          129.497       NO       
     PART-1-1.12553       0.00103151          7.40202          165.759       NO       
     PART-1-1.12593        0.0139469          37.9983          112.651       NO       
     PART-1-1.12693        0.0151159          37.9899          114.319       NO       
     PART-1-1.12770       0.00211902          13.6668          152.391       NO       
     PART-1-1.12784        0.0175428          24.7891          152.947       NO       
     PART-1-1.12857        0.0159741          36.9846          145.932       NO       
     PART-1-1.12860        0.0129651          21.3024          145.092       NO       
     PART-1-1.12916        0.0019002          17.9183           164.37       NO       
     PART-1-1.12928       0.00566811          7.10276          151.616       NO       
     PART-1-1.12951       0.00896615          13.1388          134.638       NO       
     PART-1-1.12984       0.00681208          20.1884          149.641       NO       
     PART-1-1.12993        0.0652201          9.64612          141.406       NO       
     PART-1-1.13257       0.00456538          18.2631          143.361       NO       
     PART-1-1.13279        0.0104348          23.0151          152.595       NO       
     PART-1-1.13306           0.1874          8.77243          138.555       NO       
     PART-1-1.13335       0.00415888          5.66678          139.885       NO       
     PART-1-1.13350        0.0172384          24.0796          129.757       NO       
     PART-1-1.13365        0.0110973          12.7257          155.964       NO       
     PART-1-1.13367        0.0114886          27.4348          153.286       NO       
     PART-1-1.13408       0.00984036          11.7404          139.543       NO       
     PART-1-1.13417        0.0157693          19.2953          144.301       NO       
     PART-1-1.13451      0.000477693          11.1734          166.436       NO       
     PART-1-1.13628        0.0147564          21.0673          143.692       NO       
     PART-1-1.13633        0.0144136          15.2423          154.645       NO       
     PART-1-1.13657        0.0122099          30.0492          105.472       NO       
     PART-1-1.13782       0.00817957          32.0971          115.336       NO       
     PART-1-1.13788         0.010362          16.4388          144.059       NO       
     PART-1-1.13828         0.019611          26.4602           137.29       NO       
     PART-1-1.13865       0.00296497          7.46882          162.789       NO       
     PART-1-1.13935        0.0125939          25.6326          155.688       NO       
     PART-1-1.13936       0.00655257          50.4183          148.836       NO       
     PART-1-1.13946        0.0126714           29.747          123.954       NO       
     PART-1-1.13962       0.00363174          15.8094          157.301       NO       
     PART-1-1.13983        0.0138085          10.5149           163.39       NO       
     PART-1-1.14029        0.0126702          18.6587          144.113       NO       
     PART-1-1.14037       0.00586386          9.86541          155.085       NO       
     PART-1-1.14040        0.0125217          28.3742          134.262       NO       
     PART-1-1.14171        0.0183544          13.8823          138.189       NO       
     PART-1-1.14222       0.00505607          29.0879          154.709       NO       
     PART-1-1.14242       0.00505438           22.073           153.45       NO       
     PART-1-1.14248        0.0163242          19.6749          154.305       NO       
     PART-1-1.14285       0.00588078          8.44342           122.77       NO       
     PART-1-1.14305       0.00725266          13.6714          157.025       NO       
     PART-1-1.14319       0.00460224           9.5493          151.236       NO       
     PART-1-1.14324        0.0115846          15.3763          155.347       NO       
     PART-1-1.14348        0.0141302          39.1632          145.499       NO       
     PART-1-1.14356        0.0196125          6.12218          141.752       NO       
     PART-1-1.14445        0.0139211            21.44          146.098       NO       
     PART-1-1.14518       0.00952322          19.9056          148.182       NO       
     PART-1-1.14545       0.00682683          15.4984          148.871       NO       
     PART-1-1.14553       0.00925826          32.0445          152.516       NO       
     PART-1-1.14622        0.0158479          38.3973          145.678       NO       
     PART-1-1.14635        0.0101616          14.0385          158.972       NO       
     PART-1-1.14663        0.0166165          18.8058          142.502       NO       
     PART-1-1.14690        0.0179115          27.3537          129.609       NO       
     PART-1-1.14713        0.0306308          5.98709          141.371       NO       
     PART-1-1.14732        0.0735504           8.6937          154.879       NO       
     PART-1-1.14736       0.00843912          39.6861          149.278       NO       
     PART-1-1.14750      0.000973094          21.7806          160.304       NO       
     PART-1-1.14808       0.00511709          19.0043          152.103       NO       
     PART-1-1.14815        0.0154015          26.3969          145.243       NO       
     PART-1-1.14825         0.016313          17.4787          152.327       NO       
     PART-1-1.14842       0.00688726          14.6143          144.752       NO       
     PART-1-1.14844        0.0125034          43.5715          144.713       NO       
     PART-1-1.14845        0.0142538          11.1491          127.972       NO       
     PART-1-1.14850        0.0152242          21.4527           138.07       NO       
     PART-1-1.14872        0.0083963          36.2249           134.16       NO       
     PART-1-1.14892        0.0134999           43.649          131.941       NO       
     PART-1-1.14905        0.0140428          25.3038          142.705       NO       
     PART-1-1.14916        0.0138725          28.3545          142.178       NO       
     PART-1-1.14930        0.0124914          17.9079          120.997       NO       
     PART-1-1.14978       0.00676901          17.7005           153.37       NO       
     PART-1-1.14984        0.0123831          42.2773          129.434       NO       
     PART-1-1.14990        0.0975188          5.38488          111.268       NO       
     PART-1-1.14994       0.00860655          20.3929          137.613       NO       
     PART-1-1.15027       0.00824728          25.4126          136.241       NO       
     PART-1-1.15048       0.00324897          18.0954          159.259       NO       
     PART-1-1.15050        0.0134693          24.8724           149.73       NO       
     PART-1-1.15051        0.0109851          25.9191          150.847       NO       
     PART-1-1.15077        0.0184832          29.1747          141.144       NO       
     PART-1-1.15093        0.0188901          15.8177          131.078       NO       
     PART-1-1.15110        0.0170036          10.4509          140.508       NO       
     PART-1-1.15111        0.0115465          15.5402          135.861       NO       
     PART-1-1.15116        0.0126156          23.3453          152.591       NO       
     PART-1-1.15202        0.0163295          38.1547          140.628       NO       
     PART-1-1.15244        0.0104062          12.5729          155.285       NO       
     PART-1-1.15264        0.0199179          12.1668          144.511       NO       
     PART-1-1.15273        0.0111422          25.2205          154.499       NO       
     PART-1-1.15279         0.016459          18.8291          132.533       NO       
     PART-1-1.15332       0.00326111          14.3806          137.308       NO       
     PART-1-1.15333        0.0160728          26.6875          155.152       NO       
     PART-1-1.15379       0.00829147          21.1205          148.402       NO       
     PART-1-1.15440        0.0101895          29.0555          137.387       NO       
     PART-1-1.15469        0.0154306          21.6114          128.153       NO       
     PART-1-1.15535        0.0133806           26.394          149.308       NO       
     PART-1-1.15565        0.0198393          19.9826          139.627       NO       
     PART-1-1.15570         0.048445          9.58741          135.227       NO       
     PART-1-1.15663       0.00636418           18.517          151.833       NO       
     PART-1-1.15683        0.0135899          36.4193          147.661       NO       
     PART-1-1.15712         0.013553          24.6742          129.336       NO       
     PART-1-1.15752        0.0108969          13.6043           136.97       NO       
     PART-1-1.15788        0.0163071          24.0157          142.143       NO       
     PART-1-1.15818        0.0157175           23.655          136.346       NO       
     PART-1-1.15827        0.0166961          39.8303          144.877       NO       
     PART-1-1.15828        0.0147267          25.2843          148.338       NO       
     PART-1-1.15834        0.0164797          14.1028          126.484       NO       
     PART-1-1.15839        0.0112733          12.6603          133.152       NO       
     PART-1-1.15877        0.0164883          37.6556          130.911       NO       
     PART-1-1.15885       0.00364858           27.236          128.001       NO       
     PART-1-1.15895        0.0147517          31.6489           128.38       NO       
     PART-1-1.15897       0.00619196           13.873          127.792       NO       
     PART-1-1.15913         0.013568          27.3573          154.612       NO       
     PART-1-1.16025       0.00722091          15.2028          161.935       NO       
     PART-1-1.16068        0.0097417          35.4608          117.737       NO       
     PART-1-1.16073        0.0105559          21.6624          154.539       NO       
     PART-1-1.16078        0.0385835          8.38805          153.764       NO       
     PART-1-1.16101       0.00559884          20.4137          138.274       NO       
     PART-1-1.16102        0.0164318          8.53529          139.321       NO       
     PART-1-1.16141        0.0191918          7.22848          153.312       NO       
     PART-1-1.16243       0.00499152          26.1404          153.375       NO       
     PART-1-1.16266        0.0183259          19.1726          147.529       NO       
     PART-1-1.16347         0.117519          8.57376          103.585       NO       
     PART-1-1.16357        0.0121249          21.0254          140.607       NO       
     PART-1-1.16390       0.00934624          13.3608           148.53       NO       
     PART-1-1.16395        0.0185642           24.058          137.366       NO       
     PART-1-1.16407        0.0071833          26.3866          130.943       NO       
     PART-1-1.16446        0.0114747          25.0161          131.461       NO       
     PART-1-1.16466        0.0156347          16.9019          142.877       NO       
     PART-1-1.16487         0.015051           26.082          137.671       NO       
     PART-1-1.16527       0.00677714          19.3852          153.838       NO       
     PART-1-1.16565        0.0189002          24.2633          147.466       NO       
     PART-1-1.16581        0.0147062          23.7607          128.697       NO       
     PART-1-1.16598       0.00537511          25.0364          142.073       NO       
     PART-1-1.16702        0.0160882          20.6525          143.803       NO       
     PART-1-1.16716       0.00207411          15.0355          162.929       NO       
     PART-1-1.16728       0.00444596           7.4801          168.182       NO       
     PART-1-1.16764        0.0107904          25.7657           149.25       NO       
     PART-1-1.16801        0.0111443          15.5707          135.319       NO       
     PART-1-1.16826        0.0179184          15.1335          145.863       NO       
     PART-1-1.16924       0.00309858           19.315          152.986       NO       
     PART-1-1.16936       0.00557904          10.3712           143.72       NO       
     PART-1-1.16937        0.0212362           6.9781          139.073       NO       
     PART-1-1.16955        0.0182733          22.7566          147.246       NO       
     PART-1-1.17010       0.00511475          22.4805          154.542       NO       
     PART-1-1.17074       0.00642662          17.1019          140.093       NO       
     PART-1-1.17082        0.0152559          30.9726          136.007       NO       
     PART-1-1.17083        0.0177291           23.693          136.284       NO       
     PART-1-1.17088        0.0181184          27.5959          132.692       NO       
     PART-1-1.17098       0.00520009          17.6597          149.954       NO       
     PART-1-1.17104       0.00926345          26.2926           139.24       NO       
     PART-1-1.17116       0.00855691          17.1818          142.723       NO       
     PART-1-1.17127       0.00531037          11.0636          142.902       NO       
     PART-1-1.17206       0.00585539          16.5384          158.064       NO       
     PART-1-1.17242       0.00565979          12.2736          141.653       NO       
     PART-1-1.17249        0.0142767          29.1732          140.167       NO       
     PART-1-1.17258         0.122572          9.22105          142.299       NO       
     PART-1-1.17265      0.000419484          18.7282          166.265       NO       
     PART-1-1.17266        0.0162345           22.945          147.477       NO       
     PART-1-1.17305        0.0189953           19.465          144.642       NO       
     PART-1-1.17341        0.0028191          12.8406          162.129       NO       
     PART-1-1.17397        0.0018354          17.5842          147.768       NO       
     PART-1-1.17457        0.0090196          25.3682          150.238       NO       
     PART-1-1.17461        0.0173268          22.3193          140.262       NO       
     PART-1-1.17481        0.0166776          18.8199          148.824       NO       
     PART-1-1.17515        0.0152441          41.3792          119.234       NO       
     PART-1-1.17521        0.0146729          17.8723          154.226       NO       
     PART-1-1.17575        0.0104919          31.8945          148.442       NO       
     PART-1-1.17619        0.0299276          9.77972          151.989       NO       
     PART-1-1.17621       0.00630136           28.787          144.887       NO       
     PART-1-1.17721        0.0123614           17.907          159.363       NO       
     PART-1-1.17725        0.0122796          12.5367          117.157       NO       
     PART-1-1.17863       0.00509766          18.7742           133.98       NO       
     PART-1-1.17866       0.00955587          22.7362          151.663       NO       
     PART-1-1.17953        0.0122663          32.6456          151.485       NO       
     PART-1-1.17955       0.00479149          8.78858          157.808       NO       
     PART-1-1.18056        0.0102726          19.1257          128.065       NO       
     PART-1-1.18108        0.0106531           24.002          154.077       NO       
     PART-1-1.18114        0.0184785          26.2155          143.944       NO       
     PART-1-1.18235       0.00878836           25.732          152.288       NO       
     PART-1-1.18252       0.00391778          16.5299          155.436       NO       
     PART-1-1.18275        0.0101786          30.6459          141.906       NO       
     PART-1-1.18302        0.0179786          18.6476          120.582       NO       
     PART-1-1.18486       0.00592818          33.1605          147.022       NO       
     PART-1-1.18497        0.0129703          17.5364          144.691       NO       
     PART-1-1.18502        0.0228052          7.28328          119.617       NO       
     PART-1-1.18504       0.00858515          6.56217          141.095       NO       
     PART-1-1.18537        0.0450102          9.76639          151.765       NO       
     PART-1-1.18539       0.00798324          14.1246          155.322       NO       
     PART-1-1.18647        0.0175388          18.9253          155.659       NO       
     PART-1-1.18713        0.0162637          16.1483          147.251       NO       
     PART-1-1.18727        0.0142735          24.6556          118.874       NO       
     PART-1-1.18763       0.00889059          22.9476          147.408       NO       
     PART-1-1.18796        0.0173783          9.57418          146.347       NO       
     PART-1-1.18834       0.00817116          16.2027          146.899       NO       
     PART-1-1.18842        0.0170966          21.3749          148.959       NO       
     PART-1-1.18892       0.00271009          39.9122          126.996       NO       
     PART-1-1.18894       0.00215988          9.12018          141.409       NO       
     PART-1-1.18898       0.00801111          13.0867          136.483       NO       
     PART-1-1.18903       0.00191375          14.3006          144.339       NO       
     PART-1-1.18937        0.0106498          17.8737           156.17       NO       
     PART-1-1.18939       0.00328216          10.4937          153.753       NO       
     PART-1-1.18949       0.00177006           14.111          134.722       NO       
     PART-1-1.18983        0.0182734          50.9157          141.094       NO       
     PART-1-1.18995         0.019804           31.065          142.949       NO       
     PART-1-1.19040        0.0112217          34.0525          139.577       NO       
     PART-1-1.19044        0.0193939          38.6081          143.874       NO       
     PART-1-1.19156       0.00741557           9.9364           155.74       NO       
     PART-1-1.19166        0.0125745           20.743           142.63       NO       
     PART-1-1.19193        0.0190918          20.3869          142.729       NO       
     PART-1-1.19207       0.00203987          30.2951          160.665       NO       
     PART-1-1.19265       0.00808693          13.8437          145.083       NO       
     PART-1-1.19308       0.00115551          24.3834          156.224       NO       
     PART-1-1.19380        0.0134961          23.5447          154.915       NO       
     PART-1-1.19407        0.0111012          16.3548          120.712       NO       
     PART-1-1.19425        0.0102737          22.1058          143.904       NO       
     PART-1-1.19452        0.0189751          17.0457          143.881       NO       
     PART-1-1.19458       0.00726843          11.2274          128.681       NO       
     PART-1-1.19460        0.0191452          22.8471          139.163       NO       
     PART-1-1.19486        0.0186967          8.38069           149.46       NO       
     PART-1-1.19554        0.0106584           9.6094          156.526       NO       
     PART-1-1.19558       0.00709917          5.03865          132.067       NO       
     PART-1-1.19568          0.02234          7.88533          128.419       NO       
     PART-1-1.19576        0.0175622          16.1218          148.291       NO       
     PART-1-1.19579       0.00330299          25.3887           158.75       NO       
     PART-1-1.19584        0.0173772          25.5251          133.734       NO       
     PART-1-1.19596        0.0730719           6.7849          161.049       NO       
     PART-1-1.19637       0.00849723          7.05293          157.589       NO       
     PART-1-1.19673        0.0150994          25.6888          149.449       NO       
     PART-1-1.19758       0.00542043          8.37476          142.533       NO       
     PART-1-1.19765        0.0136276          21.0458          144.769       NO       
     PART-1-1.19797        0.0159555          41.5635          145.625       NO       
     PART-1-1.19859        0.0159014          19.6074          145.967       NO       
     PART-1-1.19906        0.0193353          24.0549          110.928       NO       
     PART-1-1.19915        0.0017435          10.6577          154.217       NO       
     PART-1-1.19953        0.0135307          9.83227          140.101       NO       
     PART-1-1.19965        0.0198463          12.9157          141.783       NO       
     PART-1-1.19983       0.00731717          10.7275          137.087       NO       
     PART-1-1.19987        0.0161082          7.78782          155.156       NO       
     PART-1-1.20004        0.0173315          25.0112          145.224       NO       
     PART-1-1.20036       0.00329034          16.7164          127.395       NO       
     PART-1-1.20054       0.00771861          21.0033          151.152       NO       
     PART-1-1.20150       0.00532574          17.5002          138.202       NO       
     PART-1-1.20151        0.0091032          24.1448          146.995       NO       
     PART-1-1.20154        0.0067709           25.972          142.504       NO       
     PART-1-1.20186       0.00212249          29.2545          127.241       NO       
     PART-1-1.20189        0.0161154          12.0847          145.151       NO       
     PART-1-1.20192       0.00681835          14.8456          153.656       NO       
     PART-1-1.20193        0.0173841          19.4427          144.715       NO       
     PART-1-1.20234       0.00721382          17.7937          151.583       NO       
     PART-1-1.20271        0.0112915          26.4278          153.777       NO       
     PART-1-1.20347        0.0109298          20.5782          144.828       NO       
     PART-1-1.20371         0.008571          9.96656          155.055       NO       
     PART-1-1.20419       0.00844038          22.4094          130.323       NO       
     PART-1-1.20423        0.0129977          46.2517          136.645       NO       
     PART-1-1.20429        0.0162644          29.4891          138.966       NO       
     PART-1-1.20468       0.00530486          17.3906          161.889       NO       
     PART-1-1.20484        0.0940054          9.97698            141.4       NO       
     PART-1-1.20538        0.0042567          7.05088          152.995       NO       
     PART-1-1.20560        0.0183735          39.3209          134.857       NO       
     PART-1-1.20564        0.0183169          9.65393           161.81       NO       
     PART-1-1.20572        0.0530439           6.3698          150.329       NO       
     PART-1-1.20589        0.0131773          21.5413          142.879       NO       
     PART-1-1.20656        0.0181686          32.5494          141.182       NO       
     PART-1-1.20671        0.0163163          11.2017          153.821       NO       
     PART-1-1.20740       0.00543536          6.14773          158.754       NO       
     PART-1-1.20745        0.0177562          30.5584          141.997       NO       
     PART-1-1.20761       0.00401898          20.9291          137.355       NO       
     PART-1-1.20800        0.0133078          16.5289          150.794       NO       
     PART-1-1.20812        0.0287351          5.57225          157.197       NO       
     PART-1-1.20841       0.00682725          21.9059          143.709       NO       
     PART-1-1.20853        0.0132071          16.2687          140.412       NO       
     PART-1-1.20932       0.00400153           10.263          134.595       NO       
     PART-1-1.20936        0.0180618          25.4671          140.494       NO       
     PART-1-1.20950       0.00707787          29.2708          153.419       NO       
     PART-1-1.20972       0.00671413          16.9873          148.995       NO       
     PART-1-1.20984        0.0367072          9.66596          125.983       NO       
     PART-1-1.21073       0.00734926          20.0145          156.998       NO       
     PART-1-1.21114       0.00783195          9.13486          123.442       NO       
     PART-1-1.21116        0.0140844          25.1132          148.344       NO       
     PART-1-1.21124        0.0129113          26.5544           150.25       NO       
     PART-1-1.21179        0.0179605          29.4005          142.921       NO       
     PART-1-1.21183       0.00862372          28.2061          150.198       NO       
     PART-1-1.21217        0.0127818           8.8743          160.009       NO       
     PART-1-1.21240       0.00319676          20.4267          155.626       NO       
     PART-1-1.21260       0.00702266          15.4119          157.362       NO       
     PART-1-1.21263       0.00844908          35.7131          147.369       NO       
     PART-1-1.21265        0.0102244          17.0076          156.776       NO       
     PART-1-1.21348        0.0138364          25.6214           142.37       NO       
     PART-1-1.21390        0.0023953          17.2836          149.959       NO       
     PART-1-1.21409        0.0169298          34.7185          106.722       NO       
     PART-1-1.21411       0.00363725          21.4329            132.3       NO       
     PART-1-1.21502       0.00261087          9.35748          161.155       NO       
     PART-1-1.21503       0.00235481          12.1519          150.995       NO       
     PART-1-1.21509         0.010966          13.9468          145.968       NO       
     PART-1-1.21522         0.016727          23.8652          142.421       NO       
     PART-1-1.21536         0.016703          13.7398          142.741       NO       
     PART-1-1.21563        0.0163813          46.3181            119.5       NO       
     PART-1-1.21573        0.0143578          22.8222          138.953       NO       
     PART-1-1.21580       0.00864137           19.372          147.313       NO       
     PART-1-1.21593       0.00411616          13.1617          153.284       NO       
     PART-1-1.21606       0.00310724          8.56518          163.335       NO       
     PART-1-1.21607       0.00442503          13.0655           156.47       NO       
     PART-1-1.21650        0.0086814          12.6853          159.176       NO       
     PART-1-1.21654       0.00563149          23.1214          155.776       NO       
     PART-1-1.21684         0.014019          18.4702          154.577       NO       
     PART-1-1.21693        0.0115876          34.9371          141.514       NO       
     PART-1-1.21697        0.0185185          33.7314           131.82       NO       
     PART-1-1.21812        0.0131245          27.4572          151.316       NO       
     PART-1-1.21830       0.00149567          18.2426          143.617       NO       
     PART-1-1.21856       0.00583083          23.3007          155.021       NO       
     PART-1-1.21886      0.000450039            5.518          168.533       NO       
     PART-1-1.21901      0.000590722            8.979          162.402       NO       
     PART-1-1.21913        0.0120695          8.35779          153.246       NO       
     PART-1-1.21934       0.00024203          5.77228          161.563       NO       
     PART-1-1.21953       0.00918333          27.1064          132.745       NO       
     PART-1-1.21986        0.0198914          29.1397          133.727       NO       
     PART-1-1.22011       0.00435124          22.1916          136.662       NO       
     PART-1-1.22047        0.0135513          41.0766          135.416       NO       
     PART-1-1.22065         0.014501          26.2752          123.051       NO       
     PART-1-1.22071        0.0169081          22.8143          130.448       NO       
     PART-1-1.22077        0.0146571          19.8289          149.316       NO       
     PART-1-1.22085       0.00422104           17.365          156.411       NO       
     PART-1-1.22091       0.00668272          13.6842           153.33       NO       
     PART-1-1.22118        0.0131466          16.8192           141.77       NO       
     PART-1-1.22181        0.0683239            5.142          144.602       NO       
     PART-1-1.22185        0.0142992          42.2236          140.019       NO       
     PART-1-1.22197        0.0119992          23.9239          145.068       NO       
     PART-1-1.22279        0.0110646          29.5717          132.556       NO       
     PART-1-1.22296       0.00678158          28.7401           147.85       NO       
     PART-1-1.22345       0.00726758          11.9306          146.327       NO       
     PART-1-1.22421        0.0875086           8.8362          122.404       NO       
     PART-1-1.22443        0.0159604          39.6327          144.413       NO       
     PART-1-1.22456        0.0023464          13.1602          160.107       NO       
     PART-1-1.22463       0.00454302          28.2666          117.589       NO       
     PART-1-1.22470         0.015615          18.0615          124.512       NO       
     PART-1-1.22479        0.0140252          23.0331          143.523       NO       
     PART-1-1.22482        0.0160515          21.2599          145.579       NO       
     PART-1-1.22586        0.0112621          13.9178          139.169       NO       
     PART-1-1.22630        0.0490818           8.9066          118.052       NO       
     PART-1-1.22652       0.00233788          37.7836          144.422       NO       
     PART-1-1.22972       0.00763076          20.6518           146.93       NO       
     PART-1-1.23035         0.086515          9.41948          142.339       NO       
     PART-1-1.23108       0.00385912          28.6174          141.643       NO       
     PART-1-1.23174        0.0192777          27.8871           146.02       NO       
     PART-1-1.23251       0.00820882          14.1485           152.56       NO       
     PART-1-1.23274       0.00851771          15.1438          139.545       NO       
     PART-1-1.23389       0.00134438          21.2783          154.087       NO       
     PART-1-1.23481       0.00845986          22.4924          145.755       NO       
     PART-1-1.23563        0.0185743          10.3293          140.575       NO       
     PART-1-1.23673        0.0086817          17.5623          149.328       NO       
     PART-1-1.23724       0.00276929          8.43582          153.656       NO       
     PART-1-1.23780          0.01813          16.9281          140.053       NO       
     PART-1-1.23901       0.00893691          11.7408          147.251       NO       
     PART-1-1.23907       0.00237465          23.8963          150.771       NO       
     PART-1-1.23913        0.0136477          24.3999          140.488       NO       
     PART-1-1.23964       0.00799965          26.2788          133.523       NO       
     PART-1-1.24105        0.0135318          25.5989          149.237       NO       
     PART-1-1.24162        0.0180288          14.3934           139.75       NO       
     PART-1-1.24220        0.0507279          8.15594          157.271       NO       
     PART-1-1.24224       0.00855642          19.3403          132.883       NO       
     PART-1-1.24225      0.000599866          20.1859          150.607       NO       
     PART-1-1.24291       0.00432384          22.0371           153.62       NO       
     PART-1-1.24298        0.0166867          17.7483          138.516       NO       
     PART-1-1.24301       0.00202726          20.8118           160.18       NO       
     PART-1-1.24349       0.00482437          19.2415          135.919       NO       
     PART-1-1.24352        0.0196473          38.1309          148.578       NO       
     PART-1-1.24616        0.0105228          15.5109          148.502       NO       
     PART-1-1.24644        0.0170816          29.7319          143.087       NO       
     PART-1-1.24663        0.0168847          37.9425          143.458       NO       
     PART-1-1.24672        0.0166807          48.7592          136.736       NO       
     PART-1-1.24685         0.010159           27.611          146.382       NO       
     PART-1-1.24686        0.0108432           15.727          148.625       NO       
     PART-1-1.24706       0.00581805          22.9876          136.177       NO       
     PART-1-1.24750        0.0131505          20.7355          140.808       NO       
     PART-1-1.24751        0.0110231          27.1606          148.628       NO       
     PART-1-1.24813        0.0160415          23.7447          114.628       NO       
     PART-1-1.24882       0.00861539          12.9759          162.153       NO       
     PART-1-1.24943       0.00937197           27.539          147.092       NO       
     PART-1-1.24956        0.0112162          32.2957          138.229       NO       
     PART-1-1.24958        0.0156172          28.6202          117.726       NO       
     PART-1-1.25125       0.00731289          14.1189          147.128       NO       
     PART-1-1.25197        0.0117091          30.9649          130.718       NO       
     PART-1-1.25281       0.00912343          45.7994          146.269       NO       
     PART-1-1.25337        0.0117871          15.5788          156.673       NO       
     PART-1-1.25438        0.0145205          12.5855          122.743       NO       
     PART-1-1.25441       0.00202474          6.13979          120.411       NO       
     PART-1-1.25500       0.00605836          15.4571          160.753       NO       
     PART-1-1.25650        0.0253513          9.95382          158.413       NO       
     PART-1-1.25652       0.00321253          5.46564          123.912       NO       
     PART-1-1.25778        0.0155721          22.0524          140.236       NO       
     PART-1-1.25803      0.000857516          9.06237           163.09       NO       
     PART-1-1.25805        0.0159476           14.355          134.138       NO       
     PART-1-1.25808        0.0813373          4.88469          154.296       NO       
     PART-1-1.25873        0.0230136           8.7722          131.905       NO       
     PART-1-1.25923       0.00651945          21.1314           130.03       NO       
     PART-1-1.25956        0.0111995          12.5061          135.692       NO       
     PART-1-1.26050        0.0404541          5.96366          117.357       NO       
     PART-1-1.26052       0.00770268          24.1523          137.703       NO       
     PART-1-1.26059       0.00401846           16.837          155.853       NO       
     PART-1-1.26082        0.0105302          46.1741          135.615       NO       
     PART-1-1.26093       0.00182847          16.1198          153.798       NO       
     PART-1-1.26132       0.00892952          24.2787           143.12       NO       
     PART-1-1.26155        0.0115324          38.7885          139.508       NO       
     PART-1-1.26199        0.0159413          24.1351          143.136       NO       
     PART-1-1.26221        0.0125037          11.5384          137.366       NO       
     PART-1-1.26312        0.0264751           9.3508          135.986       NO       
     PART-1-1.26313        0.0181924          26.1791          128.577       NO       
     PART-1-1.26322       0.00472577          15.3529          119.821       NO       
     PART-1-1.26404        0.0126672          13.5085          149.537       NO       
     PART-1-1.26542       0.00709935          16.6273          147.397       NO       
     PART-1-1.26728       0.00943915          11.2805          121.589       NO       
     PART-1-1.26749        0.0154386          22.6972           132.81       NO       
     PART-1-1.26764        0.0197967          49.9306          128.428       NO       
     PART-1-1.26787        0.0112865          35.0832          145.139       NO       
     PART-1-1.26850       0.00291852          21.6256          158.395       NO       
     PART-1-1.26895        0.0122803          23.6518           154.83       NO       
     PART-1-1.26896        0.0984853          8.00678          140.129       NO       
     PART-1-1.26961       0.00260058           14.885           153.07       NO       
     PART-1-1.27029        0.0471714          8.18909          144.458       NO       
     PART-1-1.27049       0.00203373           13.284          130.127       NO       
     PART-1-1.27173       0.00543798          14.4658          160.284       NO       
     PART-1-1.27347        0.0163619            19.59          143.058       NO       
     PART-1-1.27649        0.0188009          17.4615          145.623       NO       
     PART-1-1.27668        0.0182537          22.3557          146.409       NO       
     PART-1-1.27721       0.00879707           16.345          155.345       NO       
     PART-1-1.27732       0.00679374          29.3314          140.553       NO       
     PART-1-1.27742        0.0107856          27.6972          146.484       NO       
     PART-1-1.27781       0.00992908          31.3744          139.859       NO       
     PART-1-1.27785       0.00479978          23.8677          155.714       NO       
     PART-1-1.27897         0.019613           28.072          140.577       NO       
     PART-1-1.28013       0.00238125          21.1515          121.718       NO       
     PART-1-1.28052        0.0120203          19.8933          143.973       NO       
     PART-1-1.28106        0.0165271          25.2668          150.451       NO       
     PART-1-1.28107        0.0089406          28.0604          152.567       NO       
     PART-1-1.28116        0.0122057          25.1861          125.041       NO       
     PART-1-1.28135       0.00196583          19.8389          144.475       NO       
     PART-1-1.28159        0.0156608          7.25684          137.326       NO       
     PART-1-1.28178       0.00227918          18.4055          144.047       NO       
     PART-1-1.28329        0.0063415          6.91627          155.578       NO       
     PART-1-1.28497        0.0860141          9.73771          112.803       NO       
     PART-1-1.28681        0.0278667          9.02134          149.514       NO       
     PART-1-1.28751        0.0127063          11.7597          160.685       NO       
     PART-1-1.28912        0.0114597          31.4378          123.394       NO       
     PART-1-1.28958       0.00462794          18.1591          156.653       NO       
     PART-1-1.29013        0.0105965          6.73395          123.776       NO       
     PART-1-1.29037       0.00752042          8.79265          147.139       NO       
     PART-1-1.29038       0.00636497          26.1597          136.846       NO       
     PART-1-1.29042         0.019374          52.4434          141.153       NO       
     PART-1-1.29046       0.00173057          4.98507          149.773       NO       
     PART-1-1.29104       0.00625684          12.6082          149.745       NO       
     PART-1-1.29114        0.0109398          22.0095           144.31       NO       
     PART-1-1.29118       0.00608801          14.5403          148.948       NO       
     PART-1-1.29176        0.0154034          21.9854          104.091       NO       
     PART-1-1.29368        0.0130741          18.1496          150.028       NO       
     PART-1-1.29392        0.0138584          12.1066          156.316       NO       
     PART-1-1.29396       0.00117271          8.90152          148.651       NO       
     PART-1-1.29435       0.00809048           39.327          137.116       NO       
     PART-1-1.29555        0.0107839           25.834          135.725       NO       
     PART-1-1.29574       0.00751164          8.95544          142.338       NO       
     PART-1-1.29604        0.0153018          17.2333           149.27       NO       
     PART-1-1.29654        0.0911513           9.7014          143.882       NO       
     PART-1-1.29665       0.00194911           19.048          155.512       NO       
     PART-1-1.29672        0.0167674          13.5636          149.867       NO       
     PART-1-1.29712        0.0160372          21.3638           146.92       NO       
     PART-1-1.29775        0.0135099           20.346          142.773       NO       
     PART-1-1.29802       0.00728836          30.6934          145.932       NO       
     PART-1-1.29831        0.0118869          23.6456          150.323       NO       
     PART-1-1.30009       0.00904675          14.9653          152.134       NO       
     PART-1-1.30116       0.00894078          13.1083          128.256       NO       
     PART-1-1.30189        0.0168704          16.1487          108.977       NO       
     PART-1-1.30254       0.00896957          9.81215          151.907       NO       
     PART-1-1.30311       0.00945816          17.7095          143.375       NO       
     PART-1-1.30534         0.018515          17.9411          145.073       NO       
     PART-1-1.30590        0.0192273          28.0647          140.545       NO       
     PART-1-1.30602       0.00329794          21.5642          157.765       NO       
     PART-1-1.30619        0.0176986          42.8532          120.669       NO       
     PART-1-1.30639        0.0127166          19.0636          139.686       NO       
     PART-1-1.30667       0.00937619           34.849          128.224       NO       
     PART-1-1.30724        0.0133029          30.9143          148.616       NO       
     PART-1-1.30795       0.00719549          14.9245          150.534       NO       
     PART-1-1.30858       0.00334865          25.9003          152.468       NO       
     PART-1-1.30986        0.0111406          10.7958          155.105       NO       
     PART-1-1.31041       0.00249599          18.7617           149.55       NO       
     PART-1-1.31156       0.00995862          8.95444          148.201       NO       
     PART-1-1.31334        0.0553273          5.35993          118.087       NO       
     PART-1-1.31415        0.0239043          8.85764          132.859       NO       
     PART-1-1.31783        0.0104671          31.5408          140.821       NO       
     PART-1-1.31815       0.00153788          20.7221          150.575       NO       
     PART-1-1.31826       0.00361937          25.5493          142.644       NO       
     PART-1-1.32009        0.0242781           6.2706          131.993       NO       
     PART-1-1.32050        0.0593745          8.19102          102.788       NO       
     PART-1-1.32054       0.00999502          11.1661          141.574       NO       
     PART-1-1.32075         0.021127          5.85352          156.774       NO       
     PART-1-1.32134        0.0161707          11.8723          149.869       NO       
     PART-1-1.32165        0.0175921          12.0006            127.4       NO       
     PART-1-1.32244       0.00597112           24.986          139.221       NO       
     PART-1-1.32339        0.0787708          9.81869          130.187       NO       
     PART-1-1.32358        0.0312154          7.52182          132.069       NO       
     PART-1-1.32470       0.00942269          22.0943          140.574       NO       
     PART-1-1.32708         0.148791          8.11216           155.78       NO       
     PART-1-1.32802        0.0156677          11.2984          155.714       NO       
     PART-1-1.32804        0.0056139          9.62758          152.965       NO       
     PART-1-1.32821       0.00604473          17.0785          150.103       NO       
     PART-1-1.32829       0.00874719          18.5126          118.898       NO       
     PART-1-1.32863        0.0901136          8.86339          133.405       NO       
     PART-1-1.32876       0.00454003          17.5048          154.887       NO       
     PART-1-1.32898        0.0125877          20.8939          141.129       NO       
     PART-1-1.33091        0.0166572           12.953          137.097       NO       
     PART-1-1.33115        0.0135872          27.4769           142.55       NO       
     PART-1-1.33132        0.0173967          18.6785          154.096       NO       
     PART-1-1.33156       0.00809794          20.5768           152.12       NO       
     PART-1-1.33205        0.0172961          21.3526          147.214       NO       
     PART-1-1.33207        0.0268918          8.76905          150.912       NO       
     PART-1-1.33313       0.00496815          21.5082          156.967       NO       
     PART-1-1.33315        0.0199291          14.7649          152.712       NO       
     PART-1-1.33361        0.0010866          18.1299          154.899       NO       
     PART-1-1.33385       0.00626555          11.1702          144.996       NO       
     PART-1-1.33718        0.0184996          50.4017          141.013       NO       
     PART-1-1.33745        0.0138299          11.6043          128.426       NO       
     PART-1-1.33796       0.00262796           7.0982           163.43       NO       
     PART-1-1.33833         0.114916          9.98399          135.636       NO       
     PART-1-1.33872        0.0195989           27.375          129.415       NO       
     PART-1-1.34005        0.0187477          14.5933          144.228       NO       
     PART-1-1.34054       0.00238779          15.3313          135.553       NO       
     PART-1-1.34121        0.0449829          7.72276          133.522       NO       
     PART-1-1.34136        0.0223446          6.05294          135.706       NO       
     PART-1-1.34150       0.00741203          11.4129           151.45       NO       
     PART-1-1.34219        0.0319643          9.13545          131.965       NO       
     PART-1-1.34289       0.00538727          18.3534          144.273       NO       
     PART-1-1.34327        0.0145438          23.8378          141.312       NO       
     PART-1-1.34412         0.017544          23.2704          140.395       NO       
     PART-1-1.34417        0.0198244          21.5965          150.865       NO       
     PART-1-1.34554        0.0459303          7.37146           163.28       NO       
     PART-1-1.34685        0.0293653          9.97474          155.605       NO       
     PART-1-1.34717         0.011148          32.4989          132.072       NO       
     PART-1-1.34773       0.00173335            14.52          157.471       NO       
     PART-1-1.34939        0.0130543          18.6238          132.875       NO       
     PART-1-1.34962       0.00598385          15.1647          157.247       NO       
     PART-1-1.35075        0.0195795          20.8725          130.548       NO       
     PART-1-1.35094        0.0160452          21.5336          136.785       NO       
     PART-1-1.35141        0.0124195           27.394          134.894       NO       
     PART-1-1.35143       0.00467302          25.9052          147.002       NO       
     PART-1-1.35179       0.00684129          11.6409          155.361       NO       
     PART-1-1.35250        0.0758326          8.12023           132.85       NO       
     PART-1-1.35382       0.00468625          20.1364          131.651       NO       
     PART-1-1.35390        0.0400727          12.6285          161.962       NO       
     PART-1-1.35399        0.0169127           12.019          131.575       NO       
     PART-1-1.35560        0.0078235           30.604          142.781       NO       
     PART-1-1.35605        0.0161973          25.4967          118.699       NO       
     PART-1-1.35657        0.0924677          8.97301          133.348       NO       
     PART-1-1.35682        0.0644383          8.10479          145.648       NO       
     PART-1-1.35809        0.0194143          30.1449          126.416       NO       
     PART-1-1.35942        0.0180326          48.7374          123.697       NO       
     PART-1-1.35967         0.003715          21.8591          156.053       NO       
     PART-1-1.35995        0.0180748          32.4585          144.238       NO       
     PART-1-1.36137       0.00434475          6.17188          152.368       NO       
     PART-1-1.36200        0.0195242          23.7738          135.292       NO       
     PART-1-1.36238        0.0140007          12.7063          144.343       NO       
     PART-1-1.36394       0.00260154          16.0912          134.815       NO       
     PART-1-1.36435        0.0199065          28.1913          142.219       NO       
     PART-1-1.36436        0.0176796          9.31779          121.595       NO       
     PART-1-1.36439        0.0158015          29.2243          110.504       NO       
     PART-1-1.36502       0.00581873          13.0982          125.793       NO       
     PART-1-1.36529        0.0134914          20.4916          153.723       NO       
     PART-1-1.36531        0.0155836          33.4575          137.323       NO       
     PART-1-1.36578      0.000464401          10.2284          168.407       NO       
     PART-1-1.36609        0.0142709          24.9633           151.88       NO       
     PART-1-1.36647       0.00365758          15.1032          148.209       NO       
     PART-1-1.36672       0.00984684          13.4754          161.905       NO       
     PART-1-1.36825       0.00975911          13.2207          146.405       NO       
     PART-1-1.36829       0.00387259          5.10902           149.93       NO       
     PART-1-1.36878       0.00353946          11.7462          130.538       NO       
     PART-1-1.36913        0.0188325          9.43121          151.234       NO       
     PART-1-1.36960        0.0100305          6.73691          140.813       NO       
     PART-1-1.37030        0.0158154          20.0804          143.361       NO       
     PART-1-1.37040       0.00330798           15.758          151.943       NO       
     PART-1-1.37081        0.0147265          12.6109          157.004       NO       
     PART-1-1.37089         0.116092           6.1045          142.453       NO       
     PART-1-1.37090       0.00721762          8.14199           159.16       NO       
     PART-1-1.37265         0.040315          8.77128          123.384       NO       
     PART-1-1.37267        0.0106953          19.6606          135.218       NO       
     PART-1-1.37268       0.00651026          6.47353          144.438       NO       
     PART-1-1.37444         0.172215          9.87279          99.2924       NO       
     PART-1-1.37557       0.00478136          26.7547          144.956       NO       
     PART-1-1.37601       0.00182487          8.79484          150.656       NO       
     PART-1-1.37667         0.011538          17.1744          147.689       NO       
     PART-1-1.37741       0.00617377          21.5184           153.79       NO       
     PART-1-1.37796        0.0598314          8.80793          111.413       NO       
     PART-1-1.37837        0.0196174          29.6881          148.669       NO       
     PART-1-1.37877       0.00783637          16.6184          143.107       NO       
     PART-1-1.38132        0.0228835           9.2587          122.487       NO       
     PART-1-1.38133       0.00951839          14.7632          145.474       NO       
     PART-1-1.38197        0.0170681          32.2744          108.558       NO       
     PART-1-1.38231        0.0177208          24.4737          111.289       NO       
     PART-1-1.38234       0.00970401          20.0336          102.987       NO       
     PART-1-1.38327        0.0152217          12.0929          146.932       NO       
     PART-1-1.38355       0.00920204          28.2251          146.116       NO       
     PART-1-1.38521        0.0182907          13.5587          159.257       NO       
     PART-1-1.38537        0.0167667          24.3912          136.025       NO       
     PART-1-1.38719        0.0107403           14.925          146.712       NO       
     PART-1-1.38726        0.0048989          23.3808          135.575       NO       
     PART-1-1.38784        0.0174581          8.05398          133.713       NO       
     PART-1-1.38815        0.0130239          7.59431          124.632       NO       
     PART-1-1.38836         0.141857          9.58914          129.704       NO       
     PART-1-1.38844        0.0637559          9.13397          157.974       NO       
     PART-1-1.38847         0.016823          7.76989          154.718       NO       
     PART-1-1.38849       0.00219116          8.32808          156.811       NO       
[...]
             THIS NODE

 ***WARNING: DEGREE OF FREEDOM 3 HAS BEEN ELIMINATED AT NODE 4955 INSTANCE 
             PART-1-1 BOUNDARY CONDITION TYPE ENCASTRE MAY NOT BE APPLIED AT 
             THIS NODE

 ***WARNING: DEGREE OF FREEDOM 1 HAS BEEN ELIMINATED AT NODE 4956 INSTANCE 
             PART-1-1 BOUNDARY CONDITION TYPE ENCASTRE MAY NOT BE APPLIED AT 
             THIS NODE

 ***WARNING: DEGREE OF FREEDOM 2 HAS BEEN ELIMINATED AT NODE 4956 INSTANCE 
             PART-1-1 BOUNDARY CONDITION TYPE ENCASTRE MAY NOT BE APPLIED AT 
             THIS NODE

 ***WARNING: DEGREE OF FREEDOM 3 HAS BEEN ELIMINATED AT NODE 4956 INSTANCE 
             PART-1-1 BOUNDARY CONDITION TYPE ENCASTRE MAY NOT BE APPLIED AT 
             THIS NODE

 ***WARNING: DEGREE OF FREEDOM 1 HAS BEEN ELIMINATED AT NODE 4957 INSTANCE 
             PART-1-1 BOUNDARY CONDITION TYPE ENCASTRE MAY NOT BE APPLIED AT 
             THIS NODE

 ***WARNING: DEGREE OF FREEDOM 2 HAS BEEN ELIMINATED AT NODE 4957 INSTANCE 
             PART-1-1 BOUNDARY CONDITION TYPE ENCASTRE MAY NOT BE APPLIED AT 
             THIS NODE

 ***WARNING: DEGREE OF FREEDOM 3 HAS BEEN ELIMINATED AT NODE 4957 INSTANCE 
             PART-1-1 BOUNDARY CONDITION TYPE ENCASTRE MAY NOT BE APPLIED AT 
             THIS NODE

 ***WARNING: DEGREE OF FREEDOM 1 HAS BEEN ELIMINATED AT NODE 4958 INSTANCE 
             PART-1-1 BOUNDARY CONDITION TYPE ENCASTRE MAY NOT BE APPLIED AT 
             THIS NODE

 ***WARNING: DEGREE OF FREEDOM 2 HAS BEEN ELIMINATED AT NODE 4958 INSTANCE 
             PART-1-1 BOUNDARY CONDITION TYPE ENCASTRE MAY NOT BE APPLIED AT 
             THIS NODE

 ***WARNING: DEGREE OF FREEDOM 3 HAS BEEN ELIMINATED AT NODE 4958 INSTANCE 
             PART-1-1 BOUNDARY CONDITION TYPE ENCASTRE MAY NOT BE APPLIED AT 
             THIS NODE

 ***WARNING: DEGREE OF FREEDOM 1 HAS BEEN ELIMINATED AT NODE 4959 INSTANCE 
             PART-1-1 BOUNDARY CONDITION TYPE ENCASTRE MAY NOT BE APPLIED AT 
             THIS NODE

 ***WARNING: DEGREE OF FREEDOM 2 HAS BEEN ELIMINATED AT NODE 4959 INSTANCE 
             PART-1-1 BOUNDARY CONDITION TYPE ENCASTRE MAY NOT BE APPLIED AT 
             THIS NODE

 ***WARNING: DEGREE OF FREEDOM 3 HAS BEEN ELIMINATED AT NODE 4959 INSTANCE 
             PART-1-1 BOUNDARY CONDITION TYPE ENCASTRE MAY NOT BE APPLIED AT 
             THIS NODE

 ***WARNING: DEGREE OF FREEDOM 1 HAS BEEN ELIMINATED AT NODE 4960 INSTANCE 
             PART-1-1 BOUNDARY CONDITION TYPE ENCASTRE MAY NOT BE APPLIED AT 
             THIS NODE

 ***WARNING: DEGREE OF FREEDOM 2 HAS BEEN ELIMINATED AT NODE 4960 INSTANCE 
             PART-1-1 BOUNDARY CONDITION TYPE ENCASTRE MAY NOT BE APPLIED AT 
             THIS NODE

 ***WARNING: DEGREE OF FREEDOM 3 HAS BEEN ELIMINATED AT NODE 4960 INSTANCE 
             PART-1-1 BOUNDARY CONDITION TYPE ENCASTRE MAY NOT BE APPLIED AT 
             THIS NODE

 ***WARNING: DEGREE OF FREEDOM 1 HAS BEEN ELIMINATED AT NODE 4961 INSTANCE 
             PART-1-1 BOUNDARY CONDITION TYPE ENCASTRE MAY NOT BE APPLIED AT 
             THIS NODE

 ***WARNING: DEGREE OF FREEDOM 2 HAS BEEN ELIMINATED AT NODE 4961 INSTANCE 
             PART-1-1 BOUNDARY CONDITION TYPE ENCASTRE MAY NOT BE APPLIED AT 
             THIS NODE

 ***WARNING: DEGREE OF FREEDOM 3 HAS BEEN ELIMINATED AT NODE 4961 INSTANCE 
             PART-1-1 BOUNDARY CONDITION TYPE ENCASTRE MAY NOT BE APPLIED AT 
             THIS NODE

 ***WARNING: DEGREE OF FREEDOM 1 HAS BEEN ELIMINATED AT NODE 4962 INSTANCE 
             PART-1-1 BOUNDARY CONDITION TYPE ENCASTRE MAY NOT BE APPLIED AT 
             THIS NODE

 ***WARNING: DEGREE OF FREEDOM 2 HAS BEEN ELIMINATED AT NODE 4962 INSTANCE 
             PART-1-1 BOUNDARY CONDITION TYPE ENCASTRE MAY NOT BE APPLIED AT 
             THIS NODE

 ***WARNING: DEGREE OF FREEDOM 3 HAS BEEN ELIMINATED AT NODE 4962 INSTANCE 
             PART-1-1 BOUNDARY CONDITION TYPE ENCASTRE MAY NOT BE APPLIED AT 
             THIS NODE

 ***WARNING: DEGREE OF FREEDOM 1 HAS BEEN ELIMINATED AT NODE 4963 INSTANCE 
             PART-1-1 BOUNDARY CONDITION TYPE ENCASTRE MAY NOT BE APPLIED AT 
             THIS NODE

 ***WARNING: DEGREE OF FREEDOM 2 HAS BEEN ELIMINATED AT NODE 4963 INSTANCE 
             PART-1-1 BOUNDARY CONDITION TYPE ENCASTRE MAY NOT BE APPLIED AT 
             THIS NODE

 ***WARNING: DEGREE OF FREEDOM 3 HAS BEEN ELIMINATED AT NODE 4963 INSTANCE 
             PART-1-1 BOUNDARY CONDITION TYPE ENCASTRE MAY NOT BE APPLIED AT 
             THIS NODE

 ***WARNING: DEGREE OF FREEDOM 1 HAS BEEN ELIMINATED AT NODE 4964 INSTANCE 
             PART-1-1 BOUNDARY CONDITION TYPE ENCASTRE MAY NOT BE APPLIED AT 
             THIS NODE

 ***WARNING: DEGREE OF FREEDOM 2 HAS BEEN ELIMINATED AT NODE 4964 INSTANCE 
             PART-1-1 BOUNDARY CONDITION TYPE ENCASTRE MAY NOT BE APPLIED AT 
             THIS NODE

 ***WARNING: DEGREE OF FREEDOM 3 HAS BEEN ELIMINATED AT NODE 4964 INSTANCE 
             PART-1-1 BOUNDARY CONDITION TYPE ENCASTRE MAY NOT BE APPLIED AT 
             THIS NODE

 ***WARNING: DEGREE OF FREEDOM 1 HAS BEEN ELIMINATED AT NODE 4965 INSTANCE 
             PART-1-1 BOUNDARY CONDITION TYPE ENCASTRE MAY NOT BE APPLIED AT 
             THIS NODE

 ***WARNING: DEGREE OF FREEDOM 2 HAS BEEN ELIMINATED AT NODE 4965 INSTANCE 
             PART-1-1 BOUNDARY CONDITION TYPE ENCASTRE MAY NOT BE APPLIED AT 
             THIS NODE

 ***WARNING: DEGREE OF FREEDOM 3 HAS BEEN ELIMINATED AT NODE 4965 INSTANCE 
             PART-1-1 BOUNDARY CONDITION TYPE ENCASTRE MAY NOT BE APPLIED AT 
             THIS NODE

 ***WARNING: DEGREE OF FREEDOM 1 HAS BEEN ELIMINATED AT NODE 4966 INSTANCE 
             PART-1-1 BOUNDARY CONDITION TYPE ENCASTRE MAY NOT BE APPLIED AT 
             THIS NODE

 ***WARNING: DEGREE OF FREEDOM 2 HAS BEEN ELIMINATED AT NODE 4966 INSTANCE 
             PART-1-1 BOUNDARY CONDITION TYPE ENCASTRE MAY NOT BE APPLIED AT 
             THIS NODE

 ***WARNING: DEGREE OF FREEDOM 3 HAS BEEN ELIMINATED AT NODE 4966 INSTANCE 
             PART-1-1 BOUNDARY CONDITION TYPE ENCASTRE MAY NOT BE APPLIED AT 
             THIS NODE

 ***WARNING: DEGREE OF FREEDOM 1 HAS BEEN ELIMINATED AT NODE 4967 INSTANCE 
             PART-1-1 BOUNDARY CONDITION TYPE ENCASTRE MAY NOT BE APPLIED AT 
             THIS NODE

 ***WARNING: DEGREE OF FREEDOM 2 HAS BEEN ELIMINATED AT NODE 4967 INSTANCE 
             PART-1-1 BOUNDARY CONDITION TYPE ENCASTRE MAY NOT BE APPLIED AT 
             THIS NODE

 ***WARNING: DEGREE OF FREEDOM 3 HAS BEEN ELIMINATED AT NODE 4967 INSTANCE 
             PART-1-1 BOUNDARY CONDITION TYPE ENCASTRE MAY NOT BE APPLIED AT 
             THIS NODE

 ***WARNING: DEGREE OF FREEDOM 1 HAS BEEN ELIMINATED AT NODE 4968 INSTANCE 
             PART-1-1 BOUNDARY CONDITION TYPE ENCASTRE MAY NOT BE APPLIED AT 
             THIS NODE

 ***WARNING: DEGREE OF FREEDOM 2 HAS BEEN ELIMINATED AT NODE 4968 INSTANCE 
             PART-1-1 BOUNDARY CONDITION TYPE ENCASTRE MAY NOT BE APPLIED AT 
             THIS NODE

 ***WARNING: DEGREE OF FREEDOM 3 HAS BEEN ELIMINATED AT NODE 4968 INSTANCE 
             PART-1-1 BOUNDARY CONDITION TYPE ENCASTRE MAY NOT BE APPLIED AT 
             THIS NODE

 ***WARNING: DEGREE OF FREEDOM 1 HAS BEEN ELIMINATED AT NODE 4969 INSTANCE 
             PART-1-1 BOUNDARY CONDITION TYPE ENCASTRE MAY NOT BE APPLIED AT 
             THIS NODE

 ***WARNING: DEGREE OF FREEDOM 2 HAS BEEN ELIMINATED AT NODE 4969 INSTANCE 
             PART-1-1 BOUNDARY CONDITION TYPE ENCASTRE MAY NOT BE APPLIED AT 
             THIS NODE

 ***WARNING: DEGREE OF FREEDOM 3 HAS BEEN ELIMINATED AT NODE 4969 INSTANCE 
             PART-1-1 BOUNDARY CONDITION TYPE ENCASTRE MAY NOT BE APPLIED AT 
             THIS NODE

 ***WARNING: DEGREE OF FREEDOM 1 HAS BEEN ELIMINATED AT NODE 4970 INSTANCE 
             PART-1-1 BOUNDARY CONDITION TYPE ENCASTRE MAY NOT BE APPLIED AT 
             THIS NODE

 ***WARNING: DEGREE OF FREEDOM 2 HAS BEEN ELIMINATED AT NODE 4970 INSTANCE 
             PART-1-1 BOUNDARY CONDITION TYPE ENCASTRE MAY NOT BE APPLIED AT 
             THIS NODE

 ***WARNING: DEGREE OF FREEDOM 3 HAS BEEN ELIMINATED AT NODE 4970 INSTANCE 
             PART-1-1 BOUNDARY CONDITION TYPE ENCASTRE MAY NOT BE APPLIED AT 
             THIS NODE

 ***WARNING: DEGREE OF FREEDOM 1 HAS BEEN ELIMINATED AT NODE 4971 INSTANCE 
             PART-1-1 BOUNDARY CONDITION TYPE ENCASTRE MAY NOT BE APPLIED AT 
             THIS NODE

 ***WARNING: DEGREE OF FREEDOM 2 HAS BEEN ELIMINATED AT NODE 4971 INSTANCE 
             PART-1-1 BOUNDARY CONDITION TYPE ENCASTRE MAY NOT BE APPLIED AT 
             THIS NODE

 ***WARNING: DEGREE OF FREEDOM 3 HAS BEEN ELIMINATED AT NODE 4971 INSTANCE 
             PART-1-1 BOUNDARY CONDITION TYPE ENCASTRE MAY NOT BE APPLIED AT 
             THIS NODE

 ***WARNING: DEGREE OF FREEDOM 1 HAS BEEN ELIMINATED AT NODE 4972 INSTANCE 
             PART-1-1 BOUNDARY CONDITION TYPE ENCASTRE MAY NOT BE APPLIED AT 
             THIS NODE

 ***WARNING: DEGREE OF FREEDOM 2 HAS BEEN ELIMINATED AT NODE 4972 INSTANCE 
             PART-1-1 BOUNDARY CONDITION TYPE ENCASTRE MAY NOT BE APPLIED AT 
             THIS NODE

 ***WARNING: DEGREE OF FREEDOM 3 HAS BEEN ELIMINATED AT NODE 4972 INSTANCE 
             PART-1-1 BOUNDARY CONDITION TYPE ENCASTRE MAY NOT BE APPLIED AT 
             THIS NODE

 ***WARNING: DEGREE OF FREEDOM 1 HAS BEEN ELIMINATED AT NODE 4973 INSTANCE 
             PART-1-1 BOUNDARY CONDITION TYPE ENCASTRE MAY NOT BE APPLIED AT 
             THIS NODE

 ***WARNING: DEGREE OF FREEDOM 2 HAS BEEN ELIMINATED AT NODE 4973 INSTANCE 
             PART-1-1 BOUNDARY CONDITION TYPE ENCASTRE MAY NOT BE APPLIED AT 
             THIS NODE

 ***WARNING: DEGREE OF FREEDOM 3 HAS BEEN ELIMINATED AT NODE 4973 INSTANCE 
             PART-1-1 BOUNDARY CONDITION TYPE ENCASTRE MAY NOT BE APPLIED AT 
             THIS NODE

 ***WARNING: DEGREE OF FREEDOM 1 HAS BEEN ELIMINATED AT NODE 4974 INSTANCE 
             PART-1-1 BOUNDARY CONDITION TYPE ENCASTRE MAY NOT BE APPLIED AT 
             THIS NODE

 ***WARNING: DEGREE OF FREEDOM 2 HAS BEEN ELIMINATED AT NODE 4974 INSTANCE 
             PART-1-1 BOUNDARY CONDITION TYPE ENCASTRE MAY NOT BE APPLIED AT 
             THIS NODE

 ***WARNING: DEGREE OF FREEDOM 3 HAS BEEN ELIMINATED AT NODE 4974 INSTANCE 
             PART-1-1 BOUNDARY CONDITION TYPE ENCASTRE MAY NOT BE APPLIED AT 
             THIS NODE

 ***WARNING: DEGREE OF FREEDOM 1 HAS BEEN ELIMINATED AT NODE 4975 INSTANCE 
             PART-1-1 BOUNDARY CONDITION TYPE ENCASTRE MAY NOT BE APPLIED AT 
             THIS NODE

 ***WARNING: DEGREE OF FREEDOM 2 HAS BEEN ELIMINATED AT NODE 4975 INSTANCE 
             PART-1-1 BOUNDARY CONDITION TYPE ENCASTRE MAY NOT BE APPLIED AT 
             THIS NODE

 ***WARNING: DEGREE OF FREEDOM 3 HAS BEEN ELIMINATED AT NODE 4975 INSTANCE 
             PART-1-1 BOUNDARY CONDITION TYPE ENCASTRE MAY NOT BE APPLIED AT 
             THIS NODE

 ***WARNING: DEGREE OF FREEDOM 1 HAS BEEN ELIMINATED AT NODE 4976 INSTANCE 
             PART-1-1 BOUNDARY CONDITION TYPE ENCASTRE MAY NOT BE APPLIED AT 
             THIS NODE

 ***WARNING: DEGREE OF FREEDOM 2 HAS BEEN ELIMINATED AT NODE 4976 INSTANCE 
             PART-1-1 BOUNDARY CONDITION TYPE ENCASTRE MAY NOT BE APPLIED AT 
             THIS NODE

 ***WARNING: DEGREE OF FREEDOM 3 HAS BEEN ELIMINATED AT NODE 4976 INSTANCE 
             PART-1-1 BOUNDARY CONDITION TYPE ENCASTRE MAY NOT BE APPLIED AT 
             THIS NODE

 ***WARNING: DEGREE OF FREEDOM 1 HAS BEEN ELIMINATED AT NODE 4977 INSTANCE 
             PART-1-1 BOUNDARY CONDITION TYPE ENCASTRE MAY NOT BE APPLIED AT 
             THIS NODE

 ***WARNING: DEGREE OF FREEDOM 2 HAS BEEN ELIMINATED AT NODE 4977 INSTANCE 
             PART-1-1 BOUNDARY CONDITION TYPE ENCASTRE MAY NOT BE APPLIED AT 
             THIS NODE

 ***WARNING: DEGREE OF FREEDOM 3 HAS BEEN ELIMINATED AT NODE 4977 INSTANCE 
             PART-1-1 BOUNDARY CONDITION TYPE ENCASTRE MAY NOT BE APPLIED AT 
             THIS NODE

 ***WARNING: DEGREE OF FREEDOM 1 HAS BEEN ELIMINATED AT NODE 4978 INSTANCE 
             PART-1-1 BOUNDARY CONDITION TYPE ENCASTRE MAY NOT BE APPLIED AT 
             THIS NODE

 ***WARNING: DEGREE OF FREEDOM 2 HAS BEEN ELIMINATED AT NODE 4978 INSTANCE 
             PART-1-1 BOUNDARY CONDITION TYPE ENCASTRE MAY NOT BE APPLIED AT 
             THIS NODE

 ***WARNING: DEGREE OF FREEDOM 3 HAS BEEN ELIMINATED AT NODE 4978 INSTANCE 
             PART-1-1 BOUNDARY CONDITION TYPE ENCASTRE MAY NOT BE APPLIED AT 
             THIS NODE

 ***WARNING: DEGREE OF FREEDOM 1 HAS BEEN ELIMINATED AT NODE 4979 INSTANCE 
             PART-1-1 BOUNDARY CONDITION TYPE ENCASTRE MAY NOT BE APPLIED AT 
             THIS NODE

 ***WARNING: DEGREE OF FREEDOM 2 HAS BEEN ELIMINATED AT NODE 4979 INSTANCE 
             PART-1-1 BOUNDARY CONDITION TYPE ENCASTRE MAY NOT BE APPLIED AT 
             THIS NODE

 ***WARNING: DEGREE OF FREEDOM 3 HAS BEEN ELIMINATED AT NODE 4979 INSTANCE 
             PART-1-1 BOUNDARY CONDITION TYPE ENCASTRE MAY NOT BE APPLIED AT 
             THIS NODE

 ***WARNING: DEGREE OF FREEDOM 1 HAS BEEN ELIMINATED AT NODE 4980 INSTANCE 
             PART-1-1 BOUNDARY CONDITION TYPE ENCASTRE MAY NOT BE APPLIED AT 
             THIS NODE

 ***WARNING: DEGREE OF FREEDOM 2 HAS BEEN ELIMINATED AT NODE 4980 INSTANCE 
             PART-1-1 BOUNDARY CONDITION TYPE ENCASTRE MAY NOT BE APPLIED AT 
             THIS NODE

 ***WARNING: DEGREE OF FREEDOM 3 HAS BEEN ELIMINATED AT NODE 4980 INSTANCE 
             PART-1-1 BOUNDARY CONDITION TYPE ENCASTRE MAY NOT BE APPLIED AT 
             THIS NODE

 ***WARNING: DEGREE OF FREEDOM 1 HAS BEEN ELIMINATED AT NODE 4981 INSTANCE 
             PART-1-1 BOUNDARY CONDITION TYPE ENCASTRE MAY NOT BE APPLIED AT 
             THIS NODE

 ***WARNING: DEGREE OF FREEDOM 2 HAS BEEN ELIMINATED AT NODE 4981 INSTANCE 
             PART-1-1 BOUNDARY CONDITION TYPE ENCASTRE MAY NOT BE APPLIED AT 
             THIS NODE

 ***WARNING: DEGREE OF FREEDOM 3 HAS BEEN ELIMINATED AT NODE 4981 INSTANCE 
             PART-1-1 BOUNDARY CONDITION TYPE ENCASTRE MAY NOT BE APPLIED AT 
             THIS NODE

 ***WARNING: DEGREE OF FREEDOM 1 HAS BEEN ELIMINATED AT NODE 4982 INSTANCE 
             PART-1-1 BOUNDARY CONDITION TYPE ENCASTRE MAY NOT BE APPLIED AT 
             THIS NODE

 ***WARNING: DEGREE OF FREEDOM 2 HAS BEEN ELIMINATED AT NODE 4982 INSTANCE 
             PART-1-1 BOUNDARY CONDITION TYPE ENCASTRE MAY NOT BE APPLIED AT 
             THIS NODE

 ***WARNING: DEGREE OF FREEDOM 3 HAS BEEN ELIMINATED AT NODE 4982 INSTANCE 
             PART-1-1 BOUNDARY CONDITION TYPE ENCASTRE MAY NOT BE APPLIED AT 
             THIS NODE

 ***WARNING: DEGREE OF FREEDOM 1 HAS BEEN ELIMINATED AT NODE 4983 INSTANCE 
             PART-1-1 BOUNDARY CONDITION TYPE ENCASTRE MAY NOT BE APPLIED AT 
             THIS NODE

 ***WARNING: DEGREE OF FREEDOM 2 HAS BEEN ELIMINATED AT NODE 4983 INSTANCE 
             PART-1-1 BOUNDARY CONDITION TYPE ENCASTRE MAY NOT BE APPLIED AT 
             THIS NODE

 ***WARNING: DEGREE OF FREEDOM 3 HAS BEEN ELIMINATED AT NODE 4983 INSTANCE 
             PART-1-1 BOUNDARY CONDITION TYPE ENCASTRE MAY NOT BE APPLIED AT 
             THIS NODE

 ***WARNING: DEGREE OF FREEDOM 1 HAS BEEN ELIMINATED AT NODE 4984 INSTANCE 
             PART-1-1 BOUNDARY CONDITION TYPE ENCASTRE MAY NOT BE APPLIED AT 
             THIS NODE

 ***WARNING: DEGREE OF FREEDOM 2 HAS BEEN ELIMINATED AT NODE 4984 INSTANCE 
             PART-1-1 BOUNDARY CONDITION TYPE ENCASTRE MAY NOT BE APPLIED AT 
             THIS NODE

 ***WARNING: DEGREE OF FREEDOM 3 HAS BEEN ELIMINATED AT NODE 4984 INSTANCE 
             PART-1-1 BOUNDARY CONDITION TYPE ENCASTRE MAY NOT BE APPLIED AT 
             THIS NODE

 ***WARNING: DEGREE OF FREEDOM 1 HAS BEEN ELIMINATED AT NODE 4985 INSTANCE 
             PART-1-1 BOUNDARY CONDITION TYPE ENCASTRE MAY NOT BE APPLIED AT 
             THIS NODE

 ***WARNING: DEGREE OF FREEDOM 2 HAS BEEN ELIMINATED AT NODE 4985 INSTANCE 
             PART-1-1 BOUNDARY CONDITION TYPE ENCASTRE MAY NOT BE APPLIED AT 
             THIS NODE

 ***WARNING: DEGREE OF FREEDOM 3 HAS BEEN ELIMINATED AT NODE 4985 INSTANCE 
             PART-1-1 BOUNDARY CONDITION TYPE ENCASTRE MAY NOT BE APPLIED AT 
             THIS NODE

 ***WARNING: DEGREE OF FREEDOM 1 HAS BEEN ELIMINATED AT NODE 4986 INSTANCE 
             PART-1-1 BOUNDARY CONDITION TYPE ENCASTRE MAY NOT BE APPLIED AT 
             THIS NODE

 ***WARNING: DEGREE OF FREEDOM 2 HAS BEEN ELIMINATED AT NODE 4986 INSTANCE 
             PART-1-1 BOUNDARY CONDITION TYPE ENCASTRE MAY NOT BE APPLIED AT 
             THIS NODE

 ***WARNING: DEGREE OF FREEDOM 3 HAS BEEN ELIMINATED AT NODE 4986 INSTANCE 
             PART-1-1 BOUNDARY CONDITION TYPE ENCASTRE MAY NOT BE APPLIED AT 
             THIS NODE

 ***WARNING: DEGREE OF FREEDOM 1 HAS BEEN ELIMINATED AT NODE 4987 INSTANCE 
             PART-1-1 BOUNDARY CONDITION TYPE ENCASTRE MAY NOT BE APPLIED AT 
             THIS NODE

 ***WARNING: DEGREE OF FREEDOM 2 HAS BEEN ELIMINATED AT NODE 4987 INSTANCE 
             PART-1-1 BOUNDARY CONDITION TYPE ENCASTRE MAY NOT BE APPLIED AT 
             THIS NODE

 ***WARNING: DEGREE OF FREEDOM 3 HAS BEEN ELIMINATED AT NODE 4987 INSTANCE 
             PART-1-1 BOUNDARY CONDITION TYPE ENCASTRE MAY NOT BE APPLIED AT 
             THIS NODE

 ***WARNING: DEGREE OF FREEDOM 1 HAS BEEN ELIMINATED AT NODE 4988 INSTANCE 
             PART-1-1 BOUNDARY CONDITION TYPE ENCASTRE MAY NOT BE APPLIED AT 
             THIS NODE

 ***WARNING: DEGREE OF FREEDOM 2 HAS BEEN ELIMINATED AT NODE 4988 INSTANCE 
             PART-1-1 BOUNDARY CONDITION TYPE ENCASTRE MAY NOT BE APPLIED AT 
             THIS NODE

 ***WARNING: DEGREE OF FREEDOM 3 HAS BEEN ELIMINATED AT NODE 4988 INSTANCE 
             PART-1-1 BOUNDARY CONDITION TYPE ENCASTRE MAY NOT BE APPLIED AT 
             THIS NODE

 ***WARNING: DEGREE OF FREEDOM 1 HAS BEEN ELIMINATED AT NODE 4989 INSTANCE 
             PART-1-1 BOUNDARY CONDITION TYPE ENCASTRE MAY NOT BE APPLIED AT 
             THIS NODE

 ***WARNING: DEGREE OF FREEDOM 2 HAS BEEN ELIMINATED AT NODE 4989 INSTANCE 
             PART-1-1 BOUNDARY CONDITION TYPE ENCASTRE MAY NOT BE APPLIED AT 
             THIS NODE

 ***WARNING: DEGREE OF FREEDOM 3 HAS BEEN ELIMINATED AT NODE 4989 INSTANCE 
             PART-1-1 BOUNDARY CONDITION TYPE ENCASTRE MAY NOT BE APPLIED AT 
             THIS NODE

 ***WARNING: DEGREE OF FREEDOM 1 HAS BEEN ELIMINATED AT NODE 4990 INSTANCE 
             PART-1-1 BOUNDARY CONDITION TYPE ENCASTRE MAY NOT BE APPLIED AT 
             THIS NODE

 ***WARNING: DEGREE OF FREEDOM 2 HAS BEEN ELIMINATED AT NODE 4990 INSTANCE 
             PART-1-1 BOUNDARY CONDITION TYPE ENCASTRE MAY NOT BE APPLIED AT 
             THIS NODE

 ***WARNING: DEGREE OF FREEDOM 3 HAS BEEN ELIMINATED AT NODE 4990 INSTANCE 
             PART-1-1 BOUNDARY CONDITION TYPE ENCASTRE MAY NOT BE APPLIED AT 
             THIS NODE

 ***WARNING: 361 nodes have dof on which incorrect boundary conditions may have 
             been specified. The nodes have been identified in node set 
             WarnNodeBCIncorrectDof.



                            P R O B L E M   S I Z E


          NUMBER OF ELEMENTS IS                                651360
          NUMBER OF ELEMENTS DEFINED BY THE USER AND *TIE      651358
          NUMBER OF NODES IS                                   118678
          NUMBER OF NODES DEFINED BY THE USER                  118678
          TOTAL NUMBER OF VARIABLES IN THE MODEL               356040
          (DEGREES OF FREEDOM PLUS MAX NO. OF ANY LAGRANGE MULTIPLIER
           VARIABLES. INCLUDE *PRINT,SOLVE=YES TO GET THE ACTUAL NUMBER.)





          THE PROGRAM HAS DISCOVERED     1 FATAL ERRORS

               ** EXECUTION IS TERMINATED **



                              END OF USER INPUT PROCESSING



     JOB TIME SUMMARY
       USER TIME (SEC)      =   21.600    
       SYSTEM TIME (SEC)    =   5.8000    
       TOTAL CPU TIME (SEC) =   27.400    
       WALLCLOCK TIME (SEC) =         29
