*Heading
** Job name: Buckling_job_6 Model name: Model-1
** Generated by: Abaqus/CAE 2019
*Preprint, echo=NO, model=NO, history=NO, contact=NO
**
** PARTS
**
*Part, name=Part-1
*Node
      1,        1524.,   1454.75098,   126.451935
      2,       -1524.,   33.4452744,   126.451935
      3,        1524.,   1454.96985,    127.73732
      4,        1524.,   1456.32336,   127.548065
      5,        1524.,   1456.10449,    126.26268
      6,       -1524.,   34.7987518,    126.26268
      7,       -1524.,   35.0175629,   127.548065
      8,       -1524.,   33.6640892,    127.73732
      9,  -1522.58301,   35.4595108,   126.262688
     10,  -1522.58301,   35.6783257,   127.548058
     11,  -1522.58301,   34.3248482,    127.73732
     12,  -1522.58301,   34.1060333,   126.451927
     13,  -1521.16602,   36.1202736,   126.262688
     14,  -1521.16602,   36.3390808,   127.548058
     15,  -1521.16602,   34.9856148,   127.737328
     16,  -1521.16602,   34.7667961,   126.451927
     17,   -1519.7489,   36.7810516,   126.262672
     18,   -1519.7489,   36.9998703,   127.548073
     19,   -1519.7489,   35.6463928,   127.737312
     20,   -1519.7489,   35.4275818,   126.451942
** ... 15991 like lines cut
*Element, type=C3D4
    1, 7536, 7532, 8609, 7533
    2, 8610, 1289, 1288, 1285
    3, 1285, 1290, 8610, 1289
    4, 1292, 1289, 1288, 8610
    5, 1308, 1305, 1304, 8611
    6, 7254, 7253, 8612, 7249
    7, 8613, 2323, 2322, 2318
    8, 2322, 8613, 2318, 2317
    9, 2477, 2481, 8614, 2480
   10, 1367, 1363, 8615, 1368
   11,  985, 8616,  986,  981
   12,  344,  340,  339, 8617
   13,  344, 8617,  339,  343
   14,  340,  341, 8617,  344
   15, 2150, 2152, 2149, 8618
   16, 2147, 2151, 8619, 2146
   17, 2149, 2153, 8618, 2152
   18, 2148, 2145, 8619, 2149
   19, 8620, 1665, 1666, 1670
   20, 3976, 3975, 3980, 8621
** ... 38271 like lines cut
*Nset, nset=fibre_set2, generate
    1,  9662,     1
*Elset, elset=fibre_set2, generate
     1,  20737,      1
*Nset, nset=fibre_set5, generate
  9663,  16011,      1
*Elset, elset=fibre_set5, generate
 20738,  38291,      1
** Section: fibre_section
*Solid Section, elset=fibre_set2, material=fibre_material
,
** Section: fibre_section
*Solid Section, elset=fibre_set5, material=fibre_material
,
*End Part
**  
**
** ASSEMBLY
**
*Assembly, name=Assembly
**  
*Instance, name=Part-1-1, part=Part-1
*End Instance
**  
*Node
      1,           0.,        1524.,         127.
*Node
      2,           0.,       -1524.,         127.
*Nset, nset=_PickedSet19, internal
 1,
*Nset, nset=_PickedSet21, internal
 2,
** Constraint: Constraint-1
*Rigid Body, ref node=_PickedSet19, pin nset=top_set_pin
** Constraint: Constraint-2
*Rigid Body, ref node=_PickedSet21, pin nset=bottom_set_pin
*End Assembly
** 
** MATERIALS
** 
*Material, name=fibre_material
*Elastic
121000., 0.34
*Material, name=matrix_material
*Elastic
 426.593, 0.29
** ----------------------------------------------------------------
** 
** STEP: Step-1
** 
*Step, name=Step-1, nlgeom=NO, perturbation
*Buckle
3, , 6, 300
** 
** BOUNDARY CONDITIONS
** 
** Name: BC-1 Type: Symmetry/Antisymmetry/Encastre
*Boundary, op=NEW, load case=1
bottom_set_pin, ENCASTRE
*Boundary, op=NEW, load case=2
bottom_set_pin, ENCASTRE
** Name: BC-2 Type: Displacement/Rotation
*Boundary, op=NEW, load case=1
top_set_pin, 1, 1
top_set_pin, 3, 3
*Boundary, op=NEW, load case=2
top_set_pin, 1, 1
top_set_pin, 3, 3
** 
** LOADS
** 
** Name: Load-1   Type: Pressure
*Dsload
top_surface, P, 1.
** 
** OUTPUT REQUESTS
** 
*Restart, write, frequency=0
** 
** FIELD OUTPUT: F-Output-1
** 
*Output, field, variable=PRESELECT
*End Step
