*Heading
** Job name: Buckling_job_9_3 Model name: Model-1
** Generated by: Abaqus/CAE 2019
*Preprint, echo=NO, model=NO, history=NO, contact=NO
**
** PARTS
**
*Part, name=Part-1
*Node
      1,        1524.,   1454.74512,     126.4478
      2,       -1524.,   33.4393425,     126.4478
      3,        1524.,   1454.63062,   127.381004
      4,        1524.,   1455.43408,   127.900848
      5,        1524.,   1456.32922,     127.5522
      6,        1524.,   1456.44373,   126.618996
      7,        1524.,   1455.64026,   126.099152
      8,       -1524.,   34.3344803,   126.099152
      9,       -1524.,   35.1380005,   126.618996
     10,       -1524.,   35.0234947,     127.5522
     11,       -1524.,   34.1283607,   127.900848
     12,       -1524.,   33.3248405,   127.381004
     13,   -1523.0481,   34.7783585,   126.099152
     14,   -1523.0481,   35.5818787,   126.618996
     15,   -1523.0481,   35.4673767,     127.5522
     16,   -1523.0481,   34.5722389,   127.900848
     17,   -1523.0481,   33.7687187,   127.381004
     18,   -1523.0481,   33.8832245,     126.4478
     19,  -1522.09619,   35.2222404,   126.099152
     20,  -1522.09619,   36.0257607,   126.618996
** ... 22568 like lines cut
*Element, type=C3D4
    1, 19219, 19220, 18407, 18408
    2, 19220, 18397, 18403, 18408
    3, 19219, 19221, 19222, 18392
    4, 18573, 18567, 19223, 18568
    5, 18398, 18397, 18403, 19220
    6, 19219, 19221, 18392, 18397
    7, 19219, 19220, 18399, 18400
    8, 19224, 14422, 14421, 14424
    9, 19225, 19226, 14410, 14409
   10, 19225, 19226, 14409, 14408
   11, 19225, 14420, 14419, 14414
   12, 19225, 14421, 14416, 14422
   13, 19225, 14410, 19226, 14416
   14, 19225, 14413, 19226, 14408
   15, 19227, 19228, 10952, 10957
   16, 10958, 19227, 10957, 19229
   17, 19227, 19228, 10960, 10954
   18, 19227, 19229, 10960, 10961
   19, 19230, 19231, 11818, 11820
   20, 19230, 19231, 11820, 11815
** ... 60328 like lines cut
*Nset, nset=fibre_set2, generate
     1,  22588,      1
*Elset, elset=fibre_set2, generate
     1,  60348,      1
** Section: fibre_section
*Solid Section, elset=fibre_set2, material=fibre_material
,
*End Part
**  
**
** ASSEMBLY
**
*Assembly, name=Assembly
**  
*Instance, name=Part-1-1, part=Part-1
*End Instance
**  
*Node
      1,           0.,        1524.,         127.
*Node
      2,           0.,       -1524.,         127.
*Nset, nset=_PickedSet19, internal
 1,
*Nset, nset=_PickedSet21, internal
 2,
** Constraint: Constraint-1
*Rigid Body, ref node=_PickedSet19, pin nset=top_set_pin
** Constraint: Constraint-2
*Rigid Body, ref node=_PickedSet21, pin nset=bottom_set_pin
*End Assembly
** 
** MATERIALS
** 
*Material, name=fibre_material
*Elastic
121000., 0.34
*Material, name=matrix_material
*Elastic
 838.038, 0.29
** ----------------------------------------------------------------
** 
** STEP: Step-1
** 
*Step, name=Step-1, nlgeom=NO, perturbation
*Buckle
3, , 6, 300
** 
** BOUNDARY CONDITIONS
** 
** Name: BC-1 Type: Symmetry/Antisymmetry/Encastre
*Boundary, op=NEW, load case=1
bottom_set_pin, ENCASTRE
*Boundary, op=NEW, load case=2
bottom_set_pin, ENCASTRE
** Name: BC-2 Type: Displacement/Rotation
*Boundary, op=NEW, load case=1
top_set_pin, 1, 1
top_set_pin, 3, 3
*Boundary, op=NEW, load case=2
top_set_pin, 1, 1
top_set_pin, 3, 3
** 
** LOADS
** 
** Name: Load-1   Type: Pressure
*Dsload
top_surface, P, 1.
** 
** OUTPUT REQUESTS
** 
*Restart, write, frequency=0
** 
** FIELD OUTPUT: F-Output-1
** 
*Output, field, variable=PRESELECT
*End Step
