*Heading
** Job name: Buckling_job_0_3 Model name: Model-1
** Generated by: Abaqus/CAE 2019
*Preprint, echo=NO, model=NO, history=NO, contact=NO
**
** PARTS
**
*Part, name=Part-1
*Node
      1,        1524.,   709.963196,    126.51918
      2,       -1524.,  -711.342529,    126.51918
      3,        1524.,   709.959351,   127.476288
      4,        1524.,   710.907532,   127.754082
      5,        1524.,    711.52301,   127.002968
      6,        1524.,   710.913208,    126.24752
      7,       -1524.,  -710.392517,    126.24752
      8,       -1524.,  -709.782776,   127.002968
      9,       -1524.,  -710.398254,   127.754082
     10,       -1524.,  -711.346375,   127.476288
     11,  -1523.00549,  -709.928833,   126.247505
     12,  -1523.00549,  -709.319031,   127.002968
     13,  -1523.00549,  -709.934509,   127.754089
     14,  -1523.00549,  -710.882629,   127.476288
     15,  -1523.00549,  -710.878845,   126.519196
     16,  -1522.01111,  -709.465088,    126.24752
     17,  -1522.01111,  -708.855286,   127.002968
     18,  -1522.01111,  -709.470825,   127.754089
     19,  -1522.01111,  -710.418945,   127.476288
     20,  -1522.01111,    -710.4151,   126.519173
** ... 17165 like lines cut
*Element, type=C3D4
    1, 15331,  6840, 15332,  6839
    2, 15331,  6834,  6839, 15332
    3, 15331,  6836, 15332,  6840
    4, 15331,  6834,  6833,  6829
    5, 15331, 15332,  6836,  6832
    6, 15331,  6828,  6833,  6832
    7,  5746,  5742, 15333,  5747
    8,  5744, 15333,  5745,  5743
    9,  3056,  3051, 15334,  3052
   10,  3024,  3023, 15335, 15336
   11, 15337,  3464,  3463,  3465
   12,  1571,  1573,  1576,  1572
   13,  7128,  7127, 15338,  7123
   14,  3740,  3732, 15339,  3737
   15,  3736,  3740,  3737,  3732
   16,  3745,  3737,  3736,  3740
   17,  3740,  3732,  3736,  3731
   18,  3300, 15340,  3305,  3296
   19,  3770, 15341,  3769, 15342
   20, 15343,  4941,  4937,  4942
** ... 41087 like lines cut
*Nset, nset=fibre_set3, generate
     1,  17185,      1
*Elset, elset=fibre_set3, generate
     1,  41107,      1
** Section: fibre_section
*Solid Section, elset=fibre_set3, material=fibre_material
,
*End Part
**  
**
** ASSEMBLY
**
*Assembly, name=Assembly
**  
*Instance, name=Part-1-1, part=Part-1
*End Instance
**  
*Node
      1,           0.,        1524.,         127.
*Node
      2,           0.,       -1524.,         127.
*Nset, nset=_PickedSet19, internal
 1,
*Nset, nset=_PickedSet21, internal
 2,
** Constraint: Constraint-1
*Rigid Body, ref node=_PickedSet19, pin nset=top_set_pin
** Constraint: Constraint-2
*Rigid Body, ref node=_PickedSet21, pin nset=bottom_set_pin
*End Assembly
** 
** MATERIALS
** 
*Material, name=fibre_material
*Elastic
121000., 0.34
*Material, name=matrix_material
*Elastic
 200.267, 0.29
** ----------------------------------------------------------------
** 
** STEP: Step-1
** 
*Step, name=Step-1, nlgeom=NO, perturbation
*Buckle
3, , 6, 300
** 
** BOUNDARY CONDITIONS
** 
** Name: BC-1 Type: Symmetry/Antisymmetry/Encastre
*Boundary, op=NEW, load case=1
bottom_set_pin, ENCASTRE
*Boundary, op=NEW, load case=2
bottom_set_pin, ENCASTRE
** Name: BC-2 Type: Displacement/Rotation
*Boundary, op=NEW, load case=1
top_set_pin, 1, 1
top_set_pin, 3, 3
*Boundary, op=NEW, load case=2
top_set_pin, 1, 1
top_set_pin, 3, 3
** 
** LOADS
** 
** Name: Load-1   Type: Pressure
*Dsload
top_surface, P, 1.
** 
** OUTPUT REQUESTS
** 
*Restart, write, frequency=0
** 
** FIELD OUTPUT: F-Output-1
** 
*Output, field, variable=PRESELECT
*End Step
