1

   Abaqus 3DEXPERIENCE R2019x                                  Date 01-May-2020   Time 23:32:48
   For use by TEXAS A_M UNIVERSITY SYSTEM under license from Dassault Systemes or its subsidiary.



                         The Abaqus Software is a product of:

                           Dassault Systemes SIMULIA Corp.
                           1301 Atwood Avenue, Suite 101W
                              Johnston, RI 02919, USA
 


                   The Abaqus Software is available only under license
                   from Dassault Systemes or its subsidiary and may be
                   used or reproduced only in accordance with the terms
                   of such license.
 
                          On machine AERO-MJ09CBE4 
                          you are authorized to run
                          Abaqus/Standard until 11-Jul-2021

                          Your site id is: 200000000002185 


 
                    For assistance or any other information you may
                    obtain contact information for your local office
                    from the world wide web at:

                      http://www.3ds.com/products/simulia/locations/

 
                * * * * * * * * * * * * * * * * * * * * * * * * * * * * * * 
                *                                                         * 
                *                   *****************                     * 
                *                   *  N O T I C E  *                     * 
                *                   *****************                     * 
                *                                                         * 
                *                                                         * 
                *               Abaqus 3DEXPERIENCE R2019x                * 
                *                                                         * 
                *          BUILD ID: 2018_09_24-13.41.51 157541           * 
                *                                                         * 
                *                                                         * 
                *  Please make sure you are using                         * 
                *  release 3DEXPERIENCE R2019x manuals                    * 
                *  plus the notes accompanying this release.              * 
                *                                                         * 
                *                                                         * 
                *                                                         * 
                *                                                         * 
                *                                                         * 
                *   This program may not be used for commercial purposes  * 
                *           without payment of a commercial fee.          * 
                *                                                         * 
                * * * * * * * * * * * * * * * * * * * * * * * * * * * * * * 


 



     PROCESSING PART, INSTANCE, AND ASSEMBLY INFORMATION
   *******************************************************


 ***ERROR: in keyword *RIGIDBODY, file "Buckling_job_0.inp", line 119427: 
           Unknown assembly set TOP_SET_PIN
 ***NOTE: DUE TO AN INPUT ERROR THE ANALYSIS PRE-PROCESSOR HAS BEEN UNABLE TO 
          INTERPRET SOME DATA.  SUBSEQUENT ERRORS MAY BE CAUSED BY THIS OMISSION

 ***ERROR: in keyword *RIGIDBODY, file "Buckling_job_0.inp", line 119429: 
           Unknown assembly set BOTTOM_SET_PIN

 ***ERROR: in keyword *BOUNDARY, file "Buckling_job_0.inp", line 119451: 
           Unknown assembly node set BOTTOM_SET_PIN

 ***ERROR: in keyword *BOUNDARY, file "Buckling_job_0.inp", line 119453: 
           Unknown assembly node set BOTTOM_SET_PIN

 ***ERROR: in keyword *BOUNDARY, file "Buckling_job_0.inp", line 119456: 
           Unknown assembly node set TOP_SET_PIN

 ***ERROR: in keyword *BOUNDARY, file "Buckling_job_0.inp", line 119456: 
           Unknown assembly node set TOP_SET_PIN

 ***ERROR: in keyword *BOUNDARY, file "Buckling_job_0.inp", line 119459: 
           Unknown assembly node set TOP_SET_PIN

 ***ERROR: in keyword *BOUNDARY, file "Buckling_job_0.inp", line 119459: 
           Unknown assembly node set TOP_SET_PIN

     END PROCESSING PART, INSTANCE, AND ASSEMBLY INFORMATION
   ***********************************************************




     OPTIONS BEING PROCESSED
   ***************************


  *Heading
  *Node
  *Element, type=C3D4
  *Nset, nset=ASSEMBLY_PART-1-1_FIBRE_SET2
  *Nset, nset=ASSEMBLY_PART-1-1_FIBRE_SET3
  *Nset, nset=ASSEMBLY_PART-1-1_FIBRE_SET4
  *Nset, nset=ASSEMBLY_PART-1-1_FIBRE_SET5
  *Elset, elset=ASSEMBLY_PART-1-1_FIBRE_SET2
  *Elset, elset=ASSEMBLY_PART-1-1_FIBRE_SET3
  *Elset, elset=ASSEMBLY_PART-1-1_FIBRE_SET4
  *Elset, elset=ASSEMBLY_PART-1-1_FIBRE_SET5
  *Node
  *Nset, nset=ASSEMBLY__PICKEDSET19
  *Nset, nset=ASSEMBLY__PICKEDSET21

 ***WARNING: BUCKLE OPTION IS NOT SUPPORTED FOR ELEMENT LOOP PARALLELIZATION. 
             IF YOU HAVE SPECIFIED ELEMENT LOOP PARALLELIZATION, IT WILL BE 
             TURNED OFF FOR THIS ANALYSIS.
 LINE IMAGE: *buckle
  *material, name=FIBRE_MATERIAL
  *elastic
  *material, name=MATRIX_MATERIAL
  *elastic
  *solidsection, elset=ASSEMBLY_PART-1-1_FIBRE_SET2, material=FIBRE_MATERIAL
  *solidsection, elset=ASSEMBLY_PART-1-1_FIBRE_SET3, material=FIBRE_MATERIAL
  *solidsection, elset=ASSEMBLY_PART-1-1_FIBRE_SET4, material=FIBRE_MATERIAL
  *solidsection, elset=ASSEMBLY_PART-1-1_FIBRE_SET5, material=FIBRE_MATERIAL
  *solidsection, elset=ASSEMBLY_PART-1-1_FIBRE_SET2, material=FIBRE_MATERIAL
  *solidsection, elset=ASSEMBLY_PART-1-1_FIBRE_SET3, material=FIBRE_MATERIAL
  *solidsection, elset=ASSEMBLY_PART-1-1_FIBRE_SET4, material=FIBRE_MATERIAL
  *solidsection, elset=ASSEMBLY_PART-1-1_FIBRE_SET5, material=FIBRE_MATERIAL
  *rigidbody, refnode=ASSEMBLY__PICKEDSET19, pinnset=ASSEMBLY_TOP_SET_PIN
  *rigidbody, refnode=ASSEMBLY__PICKEDSET21, pinnset=ASSEMBLY_BOTTOM_SET_PIN
  *rigidbody, refnode=ASSEMBLY__PICKEDSET19, pinnset=ASSEMBLY_TOP_SET_PIN
  *rigidbody, refnode=ASSEMBLY__PICKEDSET21, pinnset=ASSEMBLY_BOTTOM_SET_PIN
  *rigidbody, refnode=ASSEMBLY__PICKEDSET19, pinnset=ASSEMBLY_TOP_SET_PIN
  *rigidbody, refnode=ASSEMBLY__PICKEDSET21, pinnset=ASSEMBLY_BOTTOM_SET_PIN
  *rigidbody, refnode=ASSEMBLY__PICKEDSET19, pinnset=ASSEMBLY_TOP_SET_PIN

 ***ERROR: NODE SET ASSEMBLY_TOP_SET_PIN HAS NOT BEEN DEFINED
  *rigidbody, refnode=ASSEMBLY__PICKEDSET21, pinnset=ASSEMBLY_BOTTOM_SET_PIN

 ***ERROR: NODE SET ASSEMBLY_BOTTOM_SET_PIN HAS NOT BEEN DEFINED
  *rigidbody, refnode=ASSEMBLY__PICKEDSET19, pinnset=ASSEMBLY_TOP_SET_PIN

 ***ERROR: NODE SET ASSEMBLY_TOP_SET_PIN HAS NOT BEEN DEFINED

 ***ERROR: UNABLE TO LOCATE NODE SET ASSEMBLY_TOP_SET_PIN. THE NODE SET MUST 
           HAVE BEEN PREVIOUSLY DEFINED. NODES IN THIS NODE SET WILL NOT BE 
           PART OF RIGID BODY
 LINE IMAGE: *rigidbody, refnode=ASSEMBLY__PICKEDSET19, 
             pinnset=ASSEMBLY_TOP_SET_PIN
  *rigidbody, refnode=ASSEMBLY__PICKEDSET21, pinnset=ASSEMBLY_BOTTOM_SET_PIN

 ***ERROR: NODE SET ASSEMBLY_BOTTOM_SET_PIN HAS NOT BEEN DEFINED

 ***ERROR: UNABLE TO LOCATE NODE SET ASSEMBLY_BOTTOM_SET_PIN. THE NODE SET MUST 
           HAVE BEEN PREVIOUSLY DEFINED. NODES IN THIS NODE SET WILL NOT BE 
           PART OF RIGID BODY
 LINE IMAGE: *rigidbody, refnode=ASSEMBLY__PICKEDSET21, 
             pinnset=ASSEMBLY_BOTTOM_SET_PIN

 ***ERROR: SURFACE DEFINITION ASSEMBLY_TOP_SURFACE NOT FOUND.
  *rigidbody, refnode=ASSEMBLY__PICKEDSET19, pinnset=ASSEMBLY_TOP_SET_PIN
  *rigidbody, refnode=ASSEMBLY__PICKEDSET21, pinnset=ASSEMBLY_BOTTOM_SET_PIN
  *rigidbody, refnode=ASSEMBLY__PICKEDSET19, pinnset=ASSEMBLY_TOP_SET_PIN

 ***ERROR: NODE SET ASSEMBLY_TOP_SET_PIN HAS NOT BEEN DEFINED

 ***ERROR: UNABLE TO LOCATE NODE SET ASSEMBLY_TOP_SET_PIN. THE NODE SET MUST 
           HAVE BEEN PREVIOUSLY DEFINED. NODES IN THIS NODE SET WILL NOT BE 
           PART OF RIGID BODY
 LINE IMAGE: *rigidbody, refnode=ASSEMBLY__PICKEDSET19, 
             pinnset=ASSEMBLY_TOP_SET_PIN
  *rigidbody, refnode=ASSEMBLY__PICKEDSET21, pinnset=ASSEMBLY_BOTTOM_SET_PIN

 ***ERROR: NODE SET ASSEMBLY_BOTTOM_SET_PIN HAS NOT BEEN DEFINED

 ***ERROR: UNABLE TO LOCATE NODE SET ASSEMBLY_BOTTOM_SET_PIN. THE NODE SET MUST 
           HAVE BEEN PREVIOUSLY DEFINED. NODES IN THIS NODE SET WILL NOT BE 
           PART OF RIGID BODY
 LINE IMAGE: *rigidbody, refnode=ASSEMBLY__PICKEDSET21, 
             pinnset=ASSEMBLY_BOTTOM_SET_PIN
  *boundary, op=NEW, loadcase=1
  *boundary, op=NEW, loadcase=2
  *boundary, op=NEW, loadcase=1
  *boundary, op=NEW, loadcase=2
  *boundary, op=NEW, loadcase=1
  *boundary, op=NEW, loadcase=2
  *boundary, op=NEW, loadcase=1
  *boundary, op=NEW, loadcase=2
  *rigidbody, refnode=ASSEMBLY__PICKEDSET19, pinnset=ASSEMBLY_TOP_SET_PIN
  *rigidbody, refnode=ASSEMBLY__PICKEDSET21, pinnset=ASSEMBLY_BOTTOM_SET_PIN
  *output, field, variable=PRESELECT
  *output, field, variable=PRESELECT
  *output, field, variable=PRESELECT

 ***ERROR: NODE SET ASSEMBLY_TOP_SET_PIN HAS NOT BEEN DEFINED

 ***ERROR: NODE SET ASSEMBLY_BOTTOM_SET_PIN HAS NOT BEEN DEFINED
  
                               E L E M E N T   Q U A L I T Y  C H E C K S        
  
  
 ***NOTES: DISTORTED ISOPARAMETRIC ELEMENTS: ANGLE BETWEEN ISOPARAMETRIC LINES 
           IS LESS THAN 45 DEGREES OR GREATER THAN 135 DEGREES.
  
           TETRAHEDRAL QUALITY MEASURE: VOLUME OF TETRAHEDRON DIVIDED BY THE 
           VOLUME OF EQUILATERAL TETRAHEDRON WITH SAME CIRCUMSPHERE RADIUS; 
           0 FOR DEGENERATE TETRAHEDRON AND 1 FOR EQUILATERIAL TETRAHEDRON. IT 
           IS RECOMMENDED THAT THE TETRAHEDRAL QUALITY MEASURE BE GREATER THAN 
           0.02, THE MIN INTERIOR (DIHEDRAL) ANGLE BE GREATER THAN 10 DEGREES, 
           AND THE MAX INTERIOR (DIHEDRAL) ANGLE BE LESS THAN 160 DEGREES. 
  
           MODIFIED TETRAHEDRAL QUALITY MEASURE: ANGLES BETWEEN THE TWO LINE 
           SEGMENTS ON EACH EDGE; THE EDGES OF MODIFIED TETRAHEDRAL SHOULD BE 
           AS STRAIGHT AS POSSIBLE. IT IS RECOMMENDED THAT THE ANGLE BETWEEN 
           THE TWO LINE SEGMENTS ON EACH EDGE IS BETWEEN 160 AND 180 DEGREES. 
  
           TRIANGULAR QUALITY MEASURE: AREA OF TRIANGLE DIVIDED BY THE AREA OF 
           EQUILATERAL TRIANGLE WITH SAME CIRCUMCIRCLE RADIUS; 0 FOR DEGENERATE 
           TRIANGLE AND 1 FOR EQUILATERAL TRIANGLE. IT IS RECOMMENDED THAT THE
           TRIANGULAR QUALITY MEASURE BE GREATER THAN 0.01, THE MIN INTERIOR 
           ANGLE BE GREATER THAN 10 DEGREES, AND THE MAX INTERIOR ANGLE BE LESS 
           THAN 160 DEGREES. 
  
           NODAL ADJUSTMENTS ARISING FROM CONTACT INTERACTIONS AND/OR TIE 
           CONSTRAINTS CAN CAUSE SEVERE ELEMENT DISTORTION. IT MAY BE NECESSARY 
           TO REMESH IN ORDER TO REDUCE THE AMOUNT OF ADJUSTMENT. 

 ***WARNING: 12368 elements are distorted. Either the isoparametric angles are 
             out of the suggested limits or the triangular or tetrahedral 
             quality measure is bad. The elements have been identified in 
             element set WarnElemDistorted.

 ***ERROR: The volume of 61 elements is zero, small, or negative. Check 
           coordinates or node numbering, or modify the mesh seed. In the case 
           of a tetrahedron this error may indicate that all nodes are located 
           very nearly in a plane. The elements have been identified in element 
           set ErrElemVolSmallNegZero.
  
 --------------------------------------------------------------------------------
 Distorted tetrahedral elements
  
      Element       Quality measure     Min angle        Max angle     Adjusted nodes 
 ------------------ ---------------- ---------------- ---------------- -------------- 
         PART-1-1.2      1.46164E-05          4.92405          171.167       NO       
         PART-1-1.6       1.5408E-06          4.48256          175.808       NO       
        PART-1-1.13      0.000544792          12.1699          166.609       NO       
        PART-1-1.15       0.00103784          8.80052          162.618       NO       
        PART-1-1.24        0.0232178          9.77753          154.318       NO       
        PART-1-1.30       0.00205189          15.2415          162.401       NO       
        PART-1-1.50      0.000183565          10.5339          169.241       NO       
        PART-1-1.52      3.73909E-06          5.24656          175.026       NO       
        PART-1-1.58      1.99764E-05          5.34263          170.183       NO       
        PART-1-1.60      0.000835517          11.2787          163.601       NO       
        PART-1-1.61      0.000815313           11.182           163.79       NO       
        PART-1-1.62        0.0123414          11.3749          155.449       NO       
        PART-1-1.70       0.00246961           9.6995          160.898       NO       
        PART-1-1.72       0.00133115           9.3487          159.287       NO       
        PART-1-1.77      0.000247534          7.43317          165.758       NO       
        PART-1-1.79      9.34943E-05          8.80406          170.913       NO       
        PART-1-1.80      0.000787844          12.0591          163.249       NO       
        PART-1-1.88        0.0198647          12.6261          153.964       NO       
        PART-1-1.92       0.00166332          6.13893          162.064       NO       
        PART-1-1.94       0.00183534          9.68878          158.645       NO       
        PART-1-1.96      0.000122878          9.74551          170.072       NO       
        PART-1-1.97      0.000693079          12.5433          166.181       NO       
        PART-1-1.98      0.000692994          8.42487          163.227       NO       
        PART-1-1.99       0.00237656          7.10297          165.051       NO       
       PART-1-1.105      5.81148E-05           6.4275            168.9       NO       
       PART-1-1.106      0.000424203          12.2962          164.817       NO       
       PART-1-1.108      0.000999232          11.1864          163.294       NO       
       PART-1-1.109       0.00184977          15.3714          162.602       NO       
       PART-1-1.122       0.00294345          7.82653          163.596       NO       
       PART-1-1.128        0.0198518           23.553          152.068       NO       
       PART-1-1.130       0.00441721          9.88151          159.311       NO       
       PART-1-1.135       0.00668393          10.3538          158.439       NO       
       PART-1-1.154      0.000754131           9.0139          163.144       NO       
       PART-1-1.160        0.0313855          7.74147          158.669       NO       
       PART-1-1.163        0.0177252          24.4287           150.95       NO       
       PART-1-1.171       0.00301999          10.7332           159.73       NO       
       PART-1-1.179      2.44484E-05           6.6027          171.295       NO       
       PART-1-1.188      0.000806046          8.79771          163.164       NO       
       PART-1-1.198      7.35447E-05          11.1622          170.235       NO       
       PART-1-1.204      0.000995532          9.60472          160.107       NO       
       PART-1-1.211       0.00120221          20.7521          161.408       NO       
       PART-1-1.216      0.000479453          8.35896          164.876       NO       
       PART-1-1.222      0.000703116          8.51797           163.45       NO       
       PART-1-1.224       0.00067849          8.04899          163.889       NO       
       PART-1-1.228      6.61794E-22      0.000224624          179.999       NO       
       PART-1-1.230        0.0034317          17.3186          161.018       NO       
       PART-1-1.239       0.00295625          14.8943          157.515       NO       
       PART-1-1.240      0.000355603          11.0601          167.847       NO       
       PART-1-1.244       0.00496952          13.8031          158.153       NO       
       PART-1-1.245       0.00329802          16.2643          161.724       NO       
       PART-1-1.260       3.5081E-07          3.63936          176.718       NO       
       PART-1-1.267      0.000511179          8.68809          164.125       NO       
       PART-1-1.268         0.019868          23.0809          150.653       NO       
       PART-1-1.269      2.79317E-05          5.56866          169.682       NO       
       PART-1-1.270      0.000646059          13.0761          166.592       NO       
       PART-1-1.273      1.62056E-06          5.22424          175.127       NO       
       PART-1-1.276      0.000531906          12.8096          166.574       NO       
       PART-1-1.298      0.000518088          11.9738          166.963       NO       
       PART-1-1.301      7.59163E-06          5.16985          169.937       NO       
       PART-1-1.308        0.0140027          16.1328          154.645       NO       
       PART-1-1.336      1.74788E-05          6.14171          169.141       NO       
       PART-1-1.348        0.0154198           12.229          153.516       NO       
       PART-1-1.351         0.009996          17.9889          157.185       NO       
       PART-1-1.352        0.0021814           11.817          162.012       NO       
       PART-1-1.380        0.0129801          16.2081          155.401       NO       
       PART-1-1.391        0.0032704          17.0756          161.043       NO       
       PART-1-1.392        0.0192524          20.7281          144.299       NO       
       PART-1-1.422       0.00318298          16.9601          160.741       NO       
       PART-1-1.437      7.28946E-05          8.76821           171.15       NO       
       PART-1-1.438      8.24303E-05          6.27685          168.185       NO       
       PART-1-1.439      9.97658E-05          9.51148          170.132       NO       
       PART-1-1.445       0.00555089           14.233          157.608       NO       
       PART-1-1.448       0.00448258          15.6733          155.314       NO       
       PART-1-1.458        0.0133378          18.5935          136.742       NO       
       PART-1-1.497       0.00429588           16.381          160.103       NO       
       PART-1-1.498       0.00262588          11.1017           159.54       NO       
       PART-1-1.499       0.00749567          17.2915          157.714       NO       
       PART-1-1.500       0.00177244          11.9853          162.709       NO       
       PART-1-1.503       0.00269215          16.1386          157.245       NO       
       PART-1-1.504       0.00562598          9.97735           158.82       NO       
       PART-1-1.527      0.000379722          9.48254          166.727       NO       
       PART-1-1.530        0.0137319          15.3654          155.746       NO       
       PART-1-1.534       0.00486885          9.80301           159.59       NO       
       PART-1-1.539       0.00200735          10.6478          156.712       NO       
       PART-1-1.541       0.00205197          10.0988          160.606       NO       
       PART-1-1.542       0.00251951          16.2595          162.325       NO       
       PART-1-1.551        0.0193078          20.6659          153.179       NO       
       PART-1-1.553        0.0196624          12.3012          154.029       NO       
       PART-1-1.557      0.000350378          7.73211           165.24       NO       
       PART-1-1.561      0.000640845          13.0163          166.504       NO       
       PART-1-1.564       0.00164287          9.27557          161.674       NO       
       PART-1-1.566      0.000559184          11.6825          167.027       NO       
       PART-1-1.567         0.001262          9.75112          158.415       NO       
       PART-1-1.568      0.000447164          12.4672          164.617       NO       
       PART-1-1.570       0.00758876          14.7607          157.724       NO       
       PART-1-1.585      3.32195E-05          5.86013          168.032       NO       
       PART-1-1.590      3.94146E-05          7.93278          172.051       NO       
       PART-1-1.591      0.000317435          7.77055          163.524       NO       
       PART-1-1.592      1.74306E-05          7.15174          172.229       NO       
       PART-1-1.596      4.40514E-05           5.8889          169.304       NO       
       PART-1-1.597       2.2027E-05          5.46709          170.586       NO       
       PART-1-1.598        0.0001502          7.16433          167.129       NO       
       PART-1-1.605       0.00278527           16.283          161.063       NO       
       PART-1-1.606       0.00151354          8.97309          162.475       NO       
       PART-1-1.639       0.00606417             14.4          157.243       NO       
       PART-1-1.677       0.00380298          10.9974          158.221       NO       
       PART-1-1.694        0.0129669          19.6357          147.428       NO       
       PART-1-1.697        0.0063328          10.0946          158.837       NO       
       PART-1-1.698       0.00341202          10.7479          159.059       NO       
       PART-1-1.700       0.00813811          23.5513          148.271       NO       
       PART-1-1.706       0.00894927          12.6273          155.941       NO       
       PART-1-1.711        0.0170536           19.104          146.219       NO       
       PART-1-1.724      5.17584E-05          8.48501          171.557       NO       
       PART-1-1.758        0.0100136          16.3551          154.212       NO       
       PART-1-1.762       0.00332617          14.2426          157.388       NO       
       PART-1-1.763       0.00333805          10.1128          159.316       NO       
       PART-1-1.765       0.00422021          17.4498          160.751       NO       
       PART-1-1.777        0.0045931           10.571          160.427       NO       
       PART-1-1.781        0.0158927          13.0911          150.431       NO       
       PART-1-1.783       0.00674971          14.9132          156.363       NO       
       PART-1-1.784       0.00631987          10.1412          156.456       NO       
       PART-1-1.785       0.00266545          10.5227          158.089       NO       
       PART-1-1.786       0.00604419          17.6631          159.102       NO       
       PART-1-1.787       0.00370676          16.4913          155.711       NO       
       PART-1-1.789      0.000459835          7.96371          165.073       NO       
       PART-1-1.791        0.0108006          20.2885          154.975       NO       
       PART-1-1.793       0.00823787          18.7232          156.756       NO       
       PART-1-1.796       0.00292013          14.0644           159.71       NO       
       PART-1-1.865      0.000618645          9.20852          163.511       NO       
       PART-1-1.867       0.00962103          11.1159          157.047       NO       
       PART-1-1.868      0.000149633          8.71367          168.201       NO       
       PART-1-1.890       0.00174523          10.2169           157.88       NO       
       PART-1-1.899      0.000582717          12.6859          163.774       NO       
       PART-1-1.900      0.000458805          8.47411          164.816       NO       
       PART-1-1.902       0.00233499          9.53956          161.089       NO       
       PART-1-1.903        0.0154873          13.0801          154.383       NO       
       PART-1-1.904        0.0012343          8.93347          162.113       NO       
       PART-1-1.923      0.000121241           7.0996          170.735       NO       
       PART-1-1.930      0.000565485          10.2158          165.345       NO       
       PART-1-1.945      0.000561838          9.01543           163.75       NO       
       PART-1-1.952      0.000657192          13.3762           166.18       NO       
       PART-1-1.959        0.0118966          30.5658          149.769       NO       
       PART-1-1.975      0.000420851          11.6997          167.532       NO       
       PART-1-1.992      0.000692249           13.512          165.476       NO       
       PART-1-1.999        0.0186355          12.5023          154.586       NO       
      PART-1-1.1004      0.000642314          9.05417          163.343       NO       
      PART-1-1.1006       0.00264936          10.2926          159.845       NO       
      PART-1-1.1008        0.0138212          20.3975          153.621       NO       
      PART-1-1.1041      0.000302808          11.0685           166.16       NO       
      PART-1-1.1043       0.00447568          21.2021          154.177       NO       
      PART-1-1.1044      0.000979312          8.59488          163.387       NO       
      PART-1-1.1047       0.00101821          13.4745          164.953       NO       
      PART-1-1.1049      6.20811E-05          8.98548          171.356       NO       
      PART-1-1.1051      0.000804365          12.5562          165.777       NO       
      PART-1-1.1053       0.00118853          9.48697          159.373       NO       
      PART-1-1.1054      0.000423978          8.43396          164.531       NO       
      PART-1-1.1055      0.000491383          12.5273          167.121       NO       
      PART-1-1.1058      0.000407443          11.8837           165.07       NO       
      PART-1-1.1059      0.000893421           8.7707           160.83       NO       
      PART-1-1.1067        0.0165615          22.4218          153.454       NO       
      PART-1-1.1073        0.0151781          19.6173          146.598       NO       
      PART-1-1.1076       0.00631525          14.8648          157.209       NO       
      PART-1-1.1077      0.000807177          13.6617          165.135       NO       
      PART-1-1.1078      0.000478159          11.8155          167.051       NO       
      PART-1-1.1079       0.00416042          15.6985          155.657       NO       
      PART-1-1.1084       0.00271089          10.0529          158.958       NO       
      PART-1-1.1085        0.0126735          12.8794          154.522       NO       
      PART-1-1.1089      0.000116611          8.04698          169.069       NO       
      PART-1-1.1099      4.58546E-07          3.98049          176.452       NO       
      PART-1-1.1100       0.00490339          10.9132          156.392       NO       
      PART-1-1.1106      0.000963428           11.132          163.608       NO       
      PART-1-1.1107       0.00438932           17.804          159.976       NO       
      PART-1-1.1113       0.00313687          16.3946          161.253       NO       
      PART-1-1.1114       0.00350321          11.0549          159.173       NO       
      PART-1-1.1129        0.0172414          20.8683          144.919       NO       
      PART-1-1.1132        0.0119306          15.7498          156.169       NO       
      PART-1-1.1138      9.18007E-05          6.69209          168.529       NO       
      PART-1-1.1178       0.00527847          17.7133           158.74       NO       
      PART-1-1.1205      1.75119E-05           5.2545          175.084       NO       
      PART-1-1.1211       0.00118377          13.6515          164.368       NO       
      PART-1-1.1219          0.01334          18.5938          136.738       NO       
      PART-1-1.1236       0.00366512          21.0293          156.088       NO       
      PART-1-1.1294      5.85921E-06          4.59813          172.388       NO       
      PART-1-1.1297       0.00576151           10.131          159.225       NO       
      PART-1-1.1306       0.00236034          10.8316          159.537       NO       
      PART-1-1.1307       0.00437514          16.2471          159.975       NO       
      PART-1-1.1321       0.00328588           13.601          157.762       NO       
      PART-1-1.1322       0.00166269          8.30489          162.815       NO       
      PART-1-1.1323       0.00260187          9.30948          161.481       NO       
      PART-1-1.1326       0.00334963          15.9657          161.996       NO       
      PART-1-1.1327       0.00134832          9.23598           159.87       NO       
      PART-1-1.1329       0.00782159          14.8457          155.679       NO       
      PART-1-1.1330       0.00556519          15.6853          154.335       NO       
      PART-1-1.1332       0.00128338          13.7301          164.229       NO       
      PART-1-1.1342      0.000425765           11.554          165.137       NO       
      PART-1-1.1345       0.00157797          9.28871           161.88       NO       
      PART-1-1.1347      0.000487269           8.4489          164.424       NO       
      PART-1-1.1348        0.0184909           13.159          152.936       NO       
      PART-1-1.1351       0.00835446          11.5307          152.967       NO       
      PART-1-1.1352       0.00206361          15.2103          158.773       NO       
      PART-1-1.1353       0.00390621           16.106          161.368       NO       
      PART-1-1.1356      6.15422E-05            6.665          168.557       NO       
      PART-1-1.1357       0.00705467          17.9113          157.341       NO       
      PART-1-1.1372       0.00323885          11.2052          157.538       NO       
      PART-1-1.1377      0.000792714          10.5673          164.303       NO       
      PART-1-1.1383      0.000971323          8.59718          163.084       NO       
      PART-1-1.1388       0.00132681          14.2152           163.87       NO       
      PART-1-1.1389      0.000419871          8.42792          164.782       NO       
      PART-1-1.1395      0.000476767          8.09095          164.985       NO       
      PART-1-1.1396      0.000955085          11.3347          163.429       NO       
      PART-1-1.1397       0.00298944          16.5724          161.214       NO       
      PART-1-1.1409       0.00046145          10.1372          165.785       NO       
      PART-1-1.1420      0.000623322           10.774          164.837       NO       
      PART-1-1.1421       0.00137175          14.0842          164.579       NO       
      PART-1-1.1422       0.00183406          15.1654          162.676       NO       
      PART-1-1.1423       0.00111619          9.03087          163.387       NO       
      PART-1-1.1429      0.000140957          7.14533          167.335       NO       
      PART-1-1.1434      0.000160543          10.3272          169.727       NO       
      PART-1-1.1436      0.000451416           12.289          166.793       NO       
      PART-1-1.1440       0.00305172          13.2052          160.202       NO       
      PART-1-1.1442       0.00229408          10.2754          160.446       NO       
      PART-1-1.1458       0.00301029            10.48          159.396       NO       
      PART-1-1.1466        0.0163572           12.983          154.451       NO       
      PART-1-1.1470        0.0161943          20.5873          154.127       NO       
      PART-1-1.1471       0.00399769          10.3913          158.621       NO       
      PART-1-1.1472      0.000182497          7.10759          166.432       NO       
      PART-1-1.1474      0.000571142          8.60037          161.815       NO       
      PART-1-1.1475      0.000213415          10.5429          167.043       NO       
      PART-1-1.1476      0.000514898          12.5985          166.509       NO       
      PART-1-1.1478      0.000159098          10.0803          169.606       NO       
      PART-1-1.1479       0.00020984          9.05044          167.406       NO       
      PART-1-1.1482       0.00414733          18.1545          159.615       NO       
      PART-1-1.1494      0.000425466          7.82174          165.134       NO       
      PART-1-1.1503       0.00283861          16.5077          161.854       NO       
      PART-1-1.1551       0.00281174          9.85147           160.77       NO       
      PART-1-1.1553        0.0058052           14.213           157.41       NO       
      PART-1-1.1562      0.000504381          11.9827          167.485       NO       
      PART-1-1.1573       0.00801296          18.2553          157.117       NO       
      PART-1-1.1574       0.00663507          18.1382          158.842       NO       
      PART-1-1.1575       0.00505198          10.5557          159.496       NO       
      PART-1-1.1577       0.00202943           12.596          161.745       NO       
      PART-1-1.1598       0.00849328          15.2017          155.255       NO       
      PART-1-1.1599       0.00284335          9.51322          160.953       NO       
      PART-1-1.1601       0.00365224          16.3625          161.598       NO       
      PART-1-1.1613       0.00249933          16.6252          161.258       NO       
      PART-1-1.1614       0.00767945          11.2229          153.763       NO       
      PART-1-1.1619       0.00316676          9.66525          161.565       NO       
      PART-1-1.1635      0.000481207          10.2979          165.747       NO       
      PART-1-1.1646        0.0185435          11.3938          154.591       NO       
      PART-1-1.1663       0.00343903          9.77613          160.162       NO       
      PART-1-1.1669         0.019744          11.9265           154.29       NO       
      PART-1-1.1674      0.000926534          13.2574          164.938       NO       
      PART-1-1.1743       0.00692232          14.2556          156.586       NO       
      PART-1-1.1799      0.000123285          6.23472          168.292       NO       
      PART-1-1.1805      0.000373872          12.0186          166.905       NO       
      PART-1-1.1806       0.00259334          14.5628          162.268       NO       
      PART-1-1.1808       0.00120886          13.9471          161.225       NO       
      PART-1-1.1810       0.00455032          10.5731          155.411       NO       
      PART-1-1.1839       0.00018696          8.92585          167.708       NO       
      PART-1-1.1872         0.007891          11.4895          153.512       NO       
      PART-1-1.1874       0.00194424           14.912           159.11       NO       
      PART-1-1.1879      0.000617075          9.07147          163.967       NO       
      PART-1-1.1880       0.00237439          11.0337          155.856       NO       
      PART-1-1.1882       0.00448481          16.3126          159.887       NO       
      PART-1-1.1895        0.0188769          17.8224          153.014       NO       
      PART-1-1.1898       0.00144978          13.9931          164.389       NO       
      PART-1-1.1900       0.00143162          14.0139          160.405       NO       
      PART-1-1.1901      0.000528939          7.76469          165.103       NO       
      PART-1-1.1902       0.00521969          11.7837          155.171       NO       
      PART-1-1.1903      0.000439353          11.2117          167.546       NO       
      PART-1-1.1906      0.000465604          9.45546          166.004       NO       
      PART-1-1.1923       0.00294984          17.1772          161.367       NO       
      PART-1-1.1927         0.010397           19.109          155.684       NO       
      PART-1-1.1931       0.00460141          16.3758          159.749       NO       
      PART-1-1.1934       0.00131007          9.79366          158.385       NO       
      PART-1-1.1937      0.000460638          12.4747          164.531       NO       
      PART-1-1.1940       0.00035645          9.26914          167.018       NO       
      PART-1-1.1941      0.000610023          11.9181          166.751       NO       
      PART-1-1.1947        0.0004827          9.50281          166.206       NO       
      PART-1-1.1949       0.00109489          12.9791          164.884       NO       
      PART-1-1.1952      0.000597982          8.58668          164.711       NO       
      PART-1-1.1953       0.00157679          13.7966          164.064       NO       
      PART-1-1.1954       0.00120973          14.1963          160.898       NO       
      PART-1-1.1963        0.0110533          14.3431          156.547       NO       
      PART-1-1.1967      0.000894067          12.7179          165.656       NO       
      PART-1-1.1969        0.0016229          15.1337          163.898       NO       
      PART-1-1.1970      0.000555893          8.28777          164.335       NO       
      PART-1-1.1971       0.00133612          9.48199          161.799       NO       
      PART-1-1.1974       0.00335347          11.4526          155.442       NO       
      PART-1-1.1977      0.000301592          8.90474          167.284       NO       
      PART-1-1.1985      0.000457481          7.95197          165.167       NO       
      PART-1-1.1986      0.000604901          11.7693          164.112       NO       
      PART-1-1.1988       0.00216471          9.64215          159.344       NO       
      PART-1-1.1991      0.000544617           12.264          167.272       NO       
      PART-1-1.2000      0.000727968          13.3293          165.927       NO       
      PART-1-1.2004      0.000715646          12.8172          166.289       NO       
      PART-1-1.2007       0.00118696          13.6241          165.094       NO       
      PART-1-1.2008      0.000604623          12.9835           166.16       NO       
      PART-1-1.2009       0.00182371          15.1853          162.601       NO       
      PART-1-1.2010      0.000966466          8.76292          163.941       NO       
      PART-1-1.2011      0.000709518          8.89402          162.537       NO       
      PART-1-1.2013      0.000623954          10.8554          164.817       NO       
      PART-1-1.2014       0.00162164          9.71912          158.769       NO       
      PART-1-1.2015      0.000519332          12.1761          164.349       NO       
      PART-1-1.2018        0.0019763          15.1736          162.572       NO       
      PART-1-1.2029       0.00233125          9.65915          161.682       NO       
      PART-1-1.2079        0.0241521          5.12428          148.923       NO       
      PART-1-1.2080        0.0140972          10.8679          153.159       NO       
      PART-1-1.2081       0.00121275          14.8008          163.244       NO       
      PART-1-1.2085        0.0916445          6.67784          133.144       NO       
      PART-1-1.2095      0.000415099          7.95784          164.974       NO       
      PART-1-1.2097        0.0135019          13.0706          154.135       NO       
      PART-1-1.2105      0.000497128          7.49921          165.782       NO       
      PART-1-1.2108        0.0142699          17.5794          153.812       NO       
      PART-1-1.2112      0.000454011          8.84603          163.685       NO       
      PART-1-1.2113      0.000410309          10.7698          167.847       NO       
      PART-1-1.2125      9.58142E-05          7.08081          165.376       NO       
      PART-1-1.2126      8.84592E-06          4.83144          171.926       NO       
      PART-1-1.2128      9.52648E-06          5.63035          172.708       NO       
      PART-1-1.2130      9.63803E-06          6.51237          173.918       NO       
      PART-1-1.2133      6.88477E-05           8.7264          171.197       NO       
      PART-1-1.2134      7.80112E-05          6.30758          168.226       NO       
      PART-1-1.2135      4.69732E-05          8.67529          170.337       NO       
      PART-1-1.2137      1.62871E-05            7.294          172.833       NO       
      PART-1-1.2138       0.00126092          9.66303          159.164       NO       
      PART-1-1.2141      4.76865E-05          8.46373          171.818       NO       
      PART-1-1.2142      9.48685E-05          9.56943          170.162       NO       
      PART-1-1.2143      0.000860059          13.0533          165.481       NO       
      PART-1-1.2146         0.014524          21.6843          154.327       NO       
      PART-1-1.2147        0.0110802          12.4878           155.47       NO       
      PART-1-1.2149        0.0152817          19.6193           146.56       NO       
      PART-1-1.2153        0.0124043          15.6157          155.226       NO       
      PART-1-1.2162       0.00141617           13.826          160.626       NO       
      PART-1-1.2168      0.000962086          8.72066          162.823       NO       
      PART-1-1.2170       0.00552184          11.2577          155.516       NO       
      PART-1-1.2171       0.00300607          16.0381          161.474       NO       
      PART-1-1.2172       0.00010305          9.59974          168.744       NO       
      PART-1-1.2173       0.00333441          10.8271           159.41       NO       
      PART-1-1.2177      7.42803E-05          6.26557          168.323       NO       
      PART-1-1.2178       0.00090817          10.9436          163.962       NO       
      PART-1-1.2179       0.00023802          7.90579          163.612       NO       
      PART-1-1.2180      0.000207385          10.7617          169.175       NO       
      PART-1-1.2181      2.58396E-05          5.65278          170.378       NO       
      PART-1-1.2182      0.000181076          7.43494          166.844       NO       
      PART-1-1.2184      8.02116E-05          7.73626          169.436       NO       
      PART-1-1.2186      2.86054E-05          7.78949          172.563       NO       
      PART-1-1.2188      3.10248E-05          6.08309          167.756       NO       
      PART-1-1.2192      1.43727E-05          5.98013          172.138       NO       
      PART-1-1.2194      2.54675E-05          7.86202          172.261       NO       
      PART-1-1.2197      0.000432417          11.9912           164.85       NO       
      PART-1-1.2198        0.0161558           20.212          145.742       NO       
      PART-1-1.2205       0.00116959          13.8735          164.385       NO       
      PART-1-1.2218      0.000659472          12.6599          163.452       NO       
      PART-1-1.2222       0.00172865          14.6538          163.302       NO       
      PART-1-1.2267       7.8023E-06          6.21997          174.237       NO       
      PART-1-1.2281      0.000432448          12.1246           167.51       NO       
      PART-1-1.2347       0.00714109          14.9079          156.024       NO       
      PART-1-1.2348       0.00312606          16.0206          162.136       NO       
      PART-1-1.2367       0.00537085          17.1344           159.93       NO       
      PART-1-1.2373      0.000141095          6.81498          167.756       NO       
      PART-1-1.2374       0.00489076           15.848          154.833       NO       
      PART-1-1.2375      0.000181464          10.2791           169.34       NO       
      PART-1-1.2377      0.000680409          12.9252          165.853       NO       
      PART-1-1.2379       0.00029082           9.4953          166.536       NO       
      PART-1-1.2380      0.000739884          13.4645            165.6       NO       
      PART-1-1.2381       0.00406671          10.0217          160.815       NO       
      PART-1-1.2383      0.000553159          8.47114          162.285       NO       
      PART-1-1.2393      5.31103E-05          5.79079          169.093       NO       
      PART-1-1.2401        0.0132491           12.037          155.413       NO       
      PART-1-1.2402        0.0142314          20.4879          154.509       NO       
      PART-1-1.2404       0.00230639          9.64506          160.743       NO       
      PART-1-1.2405       0.00341432          13.5939          159.511       NO       
      PART-1-1.2410        0.0110258          11.5144          154.209       NO       
      PART-1-1.2412       0.00999321          19.3837          155.466       NO       
      PART-1-1.2414       0.00288317          16.2194          162.241       NO       
      PART-1-1.2417      0.000369756          10.9106          167.956       NO       
      PART-1-1.2418        0.0163855          11.2117          155.091       NO       
      PART-1-1.2419      0.000441737           7.6155          165.491       NO       
      PART-1-1.2421      0.000477382          11.5028          167.378       NO       
      PART-1-1.2422      0.000445514          8.06284          162.426       NO       
      PART-1-1.2435       0.00881272          18.8882          157.423       NO       
      PART-1-1.2437       0.00341511          14.1435          159.427       NO       
      PART-1-1.2438        0.0136531          20.5754           154.01       NO       
      PART-1-1.2442       0.00657815          10.9463          159.278       NO       
      PART-1-1.2448       0.00453836          10.8989          158.264       NO       
      PART-1-1.2454       0.00232568          13.1914          161.144       NO       
      PART-1-1.2470       0.00946291          11.4117          153.275       NO       
      PART-1-1.2498       0.00175985          14.9441          162.956       NO       
      PART-1-1.2619        0.0188756          21.6264          143.791       NO       
      PART-1-1.2628        0.0190409          14.7443          151.888       NO       
      PART-1-1.2630       0.00936307          11.2089           158.98       NO       
      PART-1-1.2631       0.00132173          13.3035          151.488       NO       
      PART-1-1.2656       0.00553238          14.3078          157.302       NO       
      PART-1-1.2666      1.62428E-05          5.23998          171.169       NO       
      PART-1-1.2672       0.00170967           9.9156          158.337       NO       
      PART-1-1.2688       0.00408706          17.7395          160.524       NO       
      PART-1-1.2692        0.0177912          21.0742          152.239       NO       
      PART-1-1.2696        0.0165885          20.9104          152.559       NO       
      PART-1-1.2702      0.000783772          12.5709          165.952       NO       
      PART-1-1.2705        0.0015059          9.94746          158.169       NO       
      PART-1-1.2707      0.000514339          12.5621          164.197       NO       
      PART-1-1.2718        0.0069114          16.5046          152.827       NO       
      PART-1-1.2729        0.0032572          17.0059          161.447       NO       
      PART-1-1.2733       0.00942342          12.0703          151.979       NO       
      PART-1-1.2742       0.00574007          17.0399          158.517       NO       
      PART-1-1.2743       0.00304981          11.0651          158.102       NO       
      PART-1-1.2744       0.00297546          9.52247          161.432       NO       
      PART-1-1.2745       0.00386821          16.2388          161.388       NO       
      PART-1-1.2759       0.00149474          12.0083          162.965       NO       
      PART-1-1.2760       0.00248747          10.5543          159.873       NO       
      PART-1-1.2761       0.00313209          13.4134           160.11       NO       
      PART-1-1.2762      0.000545293          12.8331          166.394       NO       
      PART-1-1.2778        0.0176833          21.1805          153.656       NO       
      PART-1-1.2779      0.000137065          6.98043          167.298       NO       
      PART-1-1.2783      0.000471895          8.17933          164.746       NO       
      PART-1-1.2784         0.017883          20.7849          154.173       NO       
      PART-1-1.2785      0.000326519          10.1313          165.928       NO       
      PART-1-1.2786      0.000156811          10.3242          169.877       NO       
      PART-1-1.2787      0.000245831          7.22932          164.705       NO       
      PART-1-1.2789        0.0182679          12.5596          154.938       NO       
      PART-1-1.2790       0.00244265          10.1229          159.901       NO       
      PART-1-1.2792       0.00301773          16.7955          161.795       NO       
      PART-1-1.2799        0.0132221          12.7858             151.       NO       
      PART-1-1.2804       0.00318184          16.2074           156.51       NO       
      PART-1-1.2805       0.00658667          17.8898          157.952       NO       
      PART-1-1.2810       0.00068006          13.6813          165.315       NO       
      PART-1-1.2811        0.0180634          21.8972          152.644       NO       
      PART-1-1.2813        0.0147475          21.1182          154.362       NO       
      PART-1-1.2814        0.0109344          12.1441          157.134       NO       
      PART-1-1.2815       0.00253238           10.176          159.845       NO       
      PART-1-1.2816       0.00039291          11.5079          167.854       NO       
      PART-1-1.2818       0.00444466          14.6849          158.108       NO       
      PART-1-1.2819        0.0132997           19.892          154.768       NO       
      PART-1-1.2820      0.000284415          9.95612          166.315       NO       
      PART-1-1.2821       0.00028762           7.3863          164.206       NO       
      PART-1-1.2823      0.000421047          8.05643          165.349       NO       
      PART-1-1.2827      0.000498631          12.1376          167.352       NO       
      PART-1-1.2829       0.00215451          9.96787           160.17       NO       
      PART-1-1.2831       0.00186884           15.019          163.048       NO       
      PART-1-1.2833        0.0178304          12.6485          154.463       NO       
      PART-1-1.2842       0.00185541          14.8266          162.956       NO       
      PART-1-1.2845      0.000791397          8.81875          162.844       NO       
      PART-1-1.2848       0.00305277          10.6328          156.692       NO       
      PART-1-1.2850       0.00155827          9.51295          162.114       NO       
      PART-1-1.2852      0.000603214          10.4097          165.176       NO       
      PART-1-1.2895       0.00225798          12.7635          160.977       NO       
      PART-1-1.2925       0.00323731          31.1205          155.902       NO       
      PART-1-1.2941        0.0183743          13.4501            152.8       NO       
      PART-1-1.2942      0.000160788           9.6291          169.836       NO       
      PART-1-1.2965       0.00033419          7.90193          166.196       NO       
      PART-1-1.2971       0.00226712           12.798          160.809       NO       
      PART-1-1.2980      7.16689E-05          5.87896          169.331       NO       
      PART-1-1.2982      0.000301504          12.2036          167.064       NO       
      PART-1-1.2984      0.000142017          9.24893          167.796       NO       
      PART-1-1.2986        0.0079078          11.8298          152.789       NO       
      PART-1-1.2987       0.00191724          12.4057          162.193       NO       
      PART-1-1.2988       0.00291049          17.1157           161.32       NO       
      PART-1-1.2989       0.00204354           15.314          158.725       NO       
      PART-1-1.3001       0.00778751           17.806          157.262       NO       
      PART-1-1.3009        0.0119387          13.1748          157.285       NO       
      PART-1-1.3010       0.00551631           16.475          155.117       NO       
      PART-1-1.3017       0.00224991          12.5686          161.585       NO       
      PART-1-1.3025       0.00509182          13.7239          157.896       NO       
      PART-1-1.3052      0.000161675          9.03377           167.98       NO       
      PART-1-1.3055      0.000177442          7.32842          164.154       NO       
      PART-1-1.3056       0.00338972          9.25511          161.319       NO       
      PART-1-1.3057       0.00213235           10.918          159.382       NO       
      PART-1-1.3061       0.00211331          13.0935          161.474       NO       
      PART-1-1.3066      0.000186873          11.1478          169.082       NO       
      PART-1-1.3082       0.00463501          9.60394          159.234       NO       
      PART-1-1.3086       0.00139722          15.0851          163.788       NO       
      PART-1-1.3087       0.00098001          14.4886          164.747       NO       
      PART-1-1.3089      0.000147696          6.39858          167.471       NO       
      PART-1-1.3090      0.000759462          8.46071          162.451       NO       
      PART-1-1.3091       0.00116918          10.1303          161.957       NO       
      PART-1-1.3108       0.00620569          16.6948          158.537       NO       
      PART-1-1.3113       0.00253344          14.7295          158.164       NO       
      PART-1-1.3115        0.0199584          21.0106          154.083       NO       
      PART-1-1.3116       0.00269988          15.9292          161.618       NO       
      PART-1-1.3132       0.00154101          9.30076          161.883       NO       
      PART-1-1.3134       0.00215977          15.7362          162.128       NO       
      PART-1-1.3138      0.000728134          11.0592          164.263       NO       
      PART-1-1.3153       0.00128233          9.17902          160.047       NO       
      PART-1-1.3163       0.00125515          13.7151          164.279       NO       
      PART-1-1.3164      2.87668E-05          6.00775           170.12       NO       
      PART-1-1.3167        0.0141392          22.8309          144.584       NO       
      PART-1-1.3211        0.0188798          20.8404          144.334       NO       
      PART-1-1.3237       0.00266154          16.7943          160.966       NO       
      PART-1-1.3241       0.00184447          12.6634          162.086       NO       
      PART-1-1.3245       0.00299267           9.4847          161.758       NO       
      PART-1-1.3258      0.000737467          6.01887          159.385       NO       
      PART-1-1.3271        0.0100327          13.8227          158.247       NO       
      PART-1-1.3275        0.0158883          17.4536          154.145       NO       
      PART-1-1.3285       0.00019993          9.42208          167.337       NO       
      PART-1-1.3299        0.0194047          22.5863          151.361       NO       
      PART-1-1.3328      1.45682E-21      0.000207783          179.998       NO       
      PART-1-1.3330      0.000234392             8.96          167.423       NO       
      PART-1-1.3338      0.000842965          10.8072          163.881       NO       
      PART-1-1.3341      7.38499E-05          7.92551          169.403       NO       
      PART-1-1.3342      5.78587E-05           8.8424            171.5       NO       
      PART-1-1.3343      5.18505E-05          6.26759          169.078       NO       
      PART-1-1.3345      0.000479621           8.5047          164.381       NO       
      PART-1-1.3346      0.000152599          10.5936          169.034       NO       
      PART-1-1.3347         0.016874           13.163          153.147       NO       
      PART-1-1.3349       0.00108546          13.2989          164.817       NO       
      PART-1-1.3353      0.000685566          10.9654          164.499       NO       
      PART-1-1.3354        0.0183232          19.8585          145.264       NO       
      PART-1-1.3356       0.00202819          15.5035          162.316       NO       
      PART-1-1.3362       0.00132823          9.00757          162.433       NO       
      PART-1-1.3372       0.00314532          16.6399          161.351       NO       
      PART-1-1.3374       0.00293533          16.5718           161.19       NO       
      PART-1-1.3378      6.24447E-05          8.62793          169.994       NO       
      PART-1-1.3379       0.00297258          10.0062          158.258       NO       
      PART-1-1.3380       0.00252426           10.534          160.558       NO       
      PART-1-1.3381      5.99445E-05          6.06095          168.594       NO       
      PART-1-1.3383      0.000946451          11.3976          163.431       NO       
      PART-1-1.3388       0.00014112          7.09342          165.323       NO       
      PART-1-1.3391      9.19357E-05          8.14915          168.909       NO       
      PART-1-1.3392      0.000155008          7.31789          167.288       NO       
      PART-1-1.3415       0.00217848          9.14651           161.75       NO       
      PART-1-1.3416       0.00716597          14.9198          155.849       NO       
      PART-1-1.3421       0.00276705          15.5701          162.683       NO       
      PART-1-1.3439       0.00496213          16.7448           160.37       NO       
      PART-1-1.3442       0.00218161          15.1202          158.617       NO       
      PART-1-1.3445       0.00934986          11.3856          153.102       NO       
      PART-1-1.3460       0.00456049          17.5065           161.76       NO       
      PART-1-1.3464        0.0183091          17.5154          152.651       NO       
      PART-1-1.3474        0.0194233          17.4162          152.951       NO       
      PART-1-1.3496       0.00375409           11.388          156.884       NO       
      PART-1-1.3509        0.0030823          17.2795          160.374       NO       
      PART-1-1.3518       0.00239558          13.3129          161.085       NO       
      PART-1-1.3519       1.3875E-06          3.41155          173.965       NO       
      PART-1-1.3521      4.43081E-05           5.7508          169.875       NO       
      PART-1-1.3522       0.00020328          6.87549          166.629       NO       
      PART-1-1.3524      0.000109421          8.31628          168.521       NO       
      PART-1-1.3525      4.99888E-05          8.22543          172.022       NO       
      PART-1-1.3526        0.0198669          16.5295          153.428       NO       
      PART-1-1.3527       0.00375456          17.0834          160.087       NO       
      PART-1-1.3528       0.00368933          16.9099          159.897       NO       
      PART-1-1.3529       0.00462485          11.2703          157.808       NO       
      PART-1-1.3530      0.000607787          12.3877          167.054       NO       
      PART-1-1.3531      0.000509198          7.97822          165.048       NO       
      PART-1-1.3534      0.000747517          12.0697          163.395       NO       
      PART-1-1.3544       0.00202703           11.964          162.343       NO       
      PART-1-1.3545      8.27935E-06          4.98566           170.09       NO       
      PART-1-1.3551         0.017955          22.5052          151.511       NO       
      PART-1-1.3556      0.000885935           12.904          166.012       NO       
      PART-1-1.3559      4.74285E-05          6.01524           168.99       NO       
      PART-1-1.3560       4.1614E-05          6.20942          167.381       NO       
      PART-1-1.3562       0.00147318          14.6527          163.278       NO       
      PART-1-1.3564      0.000728948          8.36694           164.71       NO       
      PART-1-1.3565        0.0145155          16.7222          154.268       NO       
      PART-1-1.3566      0.000122829          10.1725          169.434       NO       
      PART-1-1.3567       4.2501E-05          8.15869          171.887       NO       
      PART-1-1.3568      8.78427E-05          6.76265          165.793       NO       
      PART-1-1.3569       4.1421E-05          4.36809           172.75       NO       
      PART-1-1.3570      1.14907E-05          7.03308            173.2       NO       
      PART-1-1.3571       5.6056E-05          5.95154          169.718       NO       
      PART-1-1.3573      6.04376E-05          7.70008           169.83       NO       
      PART-1-1.3574      0.000603226          8.63585            161.8       NO       
      PART-1-1.3577      0.000171645          7.13175          167.211       NO       
      PART-1-1.3578      3.00926E-05          6.79982          170.976       NO       
      PART-1-1.3579      0.000291262          9.48081          166.635       NO       
      PART-1-1.3580      0.000221913          10.5339          166.961       NO       
      PART-1-1.3584       0.00623661          14.4355          157.374       NO       
      PART-1-1.3585      0.000197627          10.4685          169.462       NO       
      PART-1-1.3587      0.000202595          10.2399          169.142       NO       
      PART-1-1.3592       0.00283933          14.6582          157.791       NO       
      PART-1-1.3606       0.00739747          18.8126          158.093       NO       
      PART-1-1.3608       0.00242619          10.1475          159.571       NO       
      PART-1-1.3609        0.0056903          11.0821          158.609       NO       
      PART-1-1.3612       0.00734246          18.2352          157.648       NO       
      PART-1-1.3613      0.000333725          8.10598          162.807       NO       
      PART-1-1.3617        0.0019161          12.4296          161.763       NO       
      PART-1-1.3619      0.000321503          11.6611          167.568       NO       
      PART-1-1.3624      0.000254937          10.8094          168.917       NO       
      PART-1-1.3627       0.00684747          14.4635          157.034       NO       
      PART-1-1.3628       0.00021868          7.37218          166.893       NO       
      PART-1-1.3630       0.00342633          16.8674          161.502       NO       
      PART-1-1.3652      0.000749775          13.3616          165.563       NO       
      PART-1-1.3653      7.04525E-05          9.67799          170.373       NO       
      PART-1-1.3654      2.42833E-05          5.49206          168.879       NO       
      PART-1-1.3655      4.64122E-05          6.06712          169.075       NO       
      PART-1-1.3658      1.28286E-05           6.6415          172.768       NO       
      PART-1-1.3660      4.16314E-05          8.10258           171.87       NO       
      PART-1-1.3662      8.76452E-05          8.85282          169.424       NO       
      PART-1-1.3665       0.00375749          10.5397          159.444       NO       
      PART-1-1.3667      0.000410229          8.13499          164.826       NO       
      PART-1-1.3668       0.00265843          15.5408          161.629       NO       
      PART-1-1.3669       0.00163167          9.50881           161.42       NO       
      PART-1-1.3670       0.00159877            13.27          160.562       NO       
      PART-1-1.3671       0.00199925          15.5005          163.352       NO       
      PART-1-1.3674       0.00011673          9.71896          170.491       NO       
      PART-1-1.3682        0.0153833          12.4211          156.132       NO       
      PART-1-1.3691      0.000233007          7.08829          166.228       NO       
      PART-1-1.3694      0.000153426          9.84342          168.077       NO       
      PART-1-1.3697       0.00444116          17.8533          159.206       NO       
      PART-1-1.3698       3.9822E-05          5.82732          170.137       NO       
      PART-1-1.3702      3.72705E-05          5.83639           167.95       NO       
      PART-1-1.3703      0.000383792          7.94526          165.975       NO       
      PART-1-1.3704      0.000317122           10.036          166.195       NO       
      PART-1-1.3705      0.000249648          7.64854          165.128       NO       
      PART-1-1.3707      4.47844E-05          8.05363          172.054       NO       
      PART-1-1.3711      4.55099E-05          7.52157          170.091       NO       
      PART-1-1.3712      8.65782E-05           9.9094          169.962       NO       
      PART-1-1.3717      6.47535E-06          4.42696          172.175       NO       
      PART-1-1.3724      0.000170797          10.1012          167.714       NO       
      PART-1-1.3731      0.000452874          8.16119          162.621       NO       
      PART-1-1.3738        0.0002286          8.06248          163.564       NO       
      PART-1-1.3740       0.00552548           16.361          153.996       NO       
      PART-1-1.3742      2.97282E-05          7.96009          172.356       NO       
      PART-1-1.3751       0.00010165          9.62705          168.686       NO       
      PART-1-1.3752      0.000237921          7.76751          165.207       NO       
      PART-1-1.3789        0.0189429          17.4528          153.655       NO       
      PART-1-1.3796        0.0182487          20.7692          144.573       NO       
      PART-1-1.3820        0.0188333          12.6962          151.978       NO       
      PART-1-1.3823       0.00227013          9.90064          161.146       NO       
      PART-1-1.3826        0.0037626          15.6745          156.053       NO       
      PART-1-1.3828       0.00241741          13.0212          161.201       NO       
      PART-1-1.3832       0.00248712           10.935          159.383       NO       
      PART-1-1.3836       0.00988767          18.7979          155.997       NO       
      PART-1-1.3852       0.00291381          15.5009          161.625       NO       
      PART-1-1.3853       0.00522152           14.068           157.61       NO       
      PART-1-1.3899      0.000532544          11.7795          167.077       NO       
      PART-1-1.3932        0.0189502          17.3684          152.907       NO       
      PART-1-1.3977      6.26556E-05          9.02247          171.312       NO       
      PART-1-1.4005       0.00229792          15.7861          162.076       NO       
      PART-1-1.4020       0.00102721          14.9105          164.872       NO       
      PART-1-1.4026      0.000585721          12.7974           166.31       NO       
      PART-1-1.4027        0.0123501          11.7559          155.653       NO       
      PART-1-1.4069        0.0153714          20.2269          154.696       NO       
      PART-1-1.4072        0.0154225          21.3477          152.754       NO       
      PART-1-1.4078      0.000208042          10.9623          168.767       NO       
      PART-1-1.4081       0.00440344           11.314           156.03       NO       
      PART-1-1.4082      7.60976E-06          4.54042          172.305       NO       
      PART-1-1.4088      1.63777E-05          6.28483           171.74       NO       
      PART-1-1.4090      3.97962E-05          5.76673          169.901       NO       
      PART-1-1.4091      8.44239E-06          6.34033          173.238       NO       
      PART-1-1.4092      8.31391E-06          6.20279          174.234       NO       
      PART-1-1.4093      4.44157E-05          8.17891          172.123       NO       
      PART-1-1.4096      2.84625E-05           8.2624          171.935       NO       
      PART-1-1.4098      0.000179656          10.9913          168.772       NO       
      PART-1-1.4099      4.51992E-05          8.17725          170.631       NO       
      PART-1-1.4100      8.60462E-05          8.06649          169.005       NO       
      PART-1-1.4101       0.00222816          16.0915           161.78       NO       
      PART-1-1.4104      0.000469048          12.0409          167.593       NO       
      PART-1-1.4106      0.000396558          7.87653          165.398       NO       
      PART-1-1.4107      0.000484583          11.4692           164.82       NO       
      PART-1-1.4108       0.00203082          15.1939          162.372       NO       
      PART-1-1.4112      0.000855623          11.2281          163.659       NO       
      PART-1-1.4113        0.0178577            12.41          154.068       NO       
      PART-1-1.4123         0.019228          22.4841          151.281       NO       
      PART-1-1.4128      0.000625665          12.6258          166.191       NO       
      PART-1-1.4139        0.0155575           20.717          152.964       NO       
      PART-1-1.4140       0.00164135          14.4502          164.023       NO       
      PART-1-1.4141      0.000145044          11.8885          158.585       NO       
      PART-1-1.4143       0.00132503          9.19964          163.055       NO       
      PART-1-1.4146       0.00213809          9.75927          158.349       NO       
      PART-1-1.4147      8.74755E-05          6.44618           168.82       NO       
      PART-1-1.4150      9.95718E-05          9.15857          170.802       NO       
      PART-1-1.4151       7.6911E-05          6.57403          167.688       NO       
      PART-1-1.4153       0.00579564          14.9611          157.272       NO       
      PART-1-1.4154      6.59588E-05          11.6879          140.805       NO       
      PART-1-1.4155      1.51121E-05          6.74006          173.552       NO       
      PART-1-1.4156      0.000116126          6.96408          165.373       NO       
      PART-1-1.4157      0.000106954          2.74359          152.862       NO       
      PART-1-1.4158      1.41388E-05          5.17023          170.618       NO       
      PART-1-1.4159      2.69349E-05          8.10869          171.966       NO       
      PART-1-1.4162       1.3687E-05          4.95402          171.686       NO       
      PART-1-1.4163      1.68396E-05          5.40707          169.007       NO       
      PART-1-1.4168      1.54932E-05          6.26563          171.894       NO       
      PART-1-1.4210        0.0187692          21.9027          151.932       NO       
      PART-1-1.4231       0.00397071           10.335          158.285       NO       
      PART-1-1.4242      2.65694E-05          5.53803          170.628       NO       
      PART-1-1.4266        0.0173174          20.5547          145.111       NO       
      PART-1-1.4271       0.00337397          17.0603          160.077       NO       
      PART-1-1.4278       8.1579E-06          6.18141          174.162       NO       
      PART-1-1.4336      0.000503672          13.0299          166.242       NO       
      PART-1-1.4353       0.00038473          10.0213          165.512       NO       
      PART-1-1.4356        0.0080568          18.5257          156.572       NO       
      PART-1-1.4373       0.00282466          9.46541          161.447       NO       
      PART-1-1.4390       0.00644401          15.1307          156.341       NO       
      PART-1-1.4394      0.000219325          15.3568          166.696       NO       
      PART-1-1.4395      2.13322E-23      0.000415308          179.999       NO       
      PART-1-1.4414        0.0133356          18.5929          136.743       NO       
      PART-1-1.4415       0.00132207          13.3042          151.486       NO       
      PART-1-1.4416      9.54178E-07          3.52952          174.269       NO       
      PART-1-1.4417      6.29597E-07          4.33612          175.787       NO       
      PART-1-1.4418      6.74962E-07           3.0809          174.656       NO       
      PART-1-1.4420      2.31848E-23      0.000147631             180.       NO       
      PART-1-1.4423       1.0119E-06           4.5965          175.885       NO       
      PART-1-1.4426      0.000799811          12.7191          165.781       NO       
      PART-1-1.4431      5.72727E-06          6.20706          173.635       NO       
      PART-1-1.4435      9.20661E-06           6.6258          173.873       NO       
      PART-1-1.4436       2.6808E-06          4.73105          174.046       NO       
      PART-1-1.4438      8.48859E-06          4.91923          171.769       NO       
      PART-1-1.4440      3.52391E-05          7.59574          172.385       NO       
      PART-1-1.4441      4.05316E-06          5.95257          174.297       NO       
      PART-1-1.4442      0.000317146          9.28852          167.072       NO       
      PART-1-1.4443      8.87937E-06          5.70053          172.704       NO       
      PART-1-1.4448      7.31469E-06          4.38814          172.153       NO       
      PART-1-1.4449      1.48219E-05          7.29759          172.823       NO       
      PART-1-1.4450      3.78372E-05          6.12647          169.479       NO       
      PART-1-1.4452      4.17248E-05          8.49677          171.901       NO       
      PART-1-1.4453      2.61911E-05          7.89222          171.462       NO       
      PART-1-1.4455      4.00288E-05          7.17957          170.573       NO       
      PART-1-1.4456       0.00101537          13.4291          165.009       NO       
      PART-1-1.4457      0.000298948          9.67201          166.732       NO       
      PART-1-1.4458      0.000538939          8.53993          161.487       NO       
      PART-1-1.4459      1.15199E-05          5.03617          171.651       NO       
      PART-1-1.4460      0.000206779           10.781          167.066       NO       
      PART-1-1.4461       0.00719386           19.732          157.673       NO       
      PART-1-1.4462      0.000320709           11.863          168.061       NO       
      PART-1-1.4467      0.000779932          13.2681          165.234       NO       
      PART-1-1.4469       0.00619474          14.7683          157.847       NO       
      PART-1-1.4470       0.00525356          16.8673          153.986       NO       
      PART-1-1.4495       0.00122775          13.6441          164.573       NO       
      PART-1-1.4497        0.0091854          12.6632          155.885       NO       
      PART-1-1.4498          0.01188          21.1878          155.105       NO       
      PART-1-1.4500      0.000451249          11.7525          164.942       NO       
      PART-1-1.4501      0.000657654           8.9978          163.324       NO       
      PART-1-1.4502      0.000774199          13.7032          165.882       NO       
      PART-1-1.4503       0.00211573           12.528          160.945       NO       
      PART-1-1.4504      8.85905E-05          6.21747          168.181       NO       
      PART-1-1.4505      0.000345259          12.0609          167.475       NO       
      PART-1-1.4506      0.000371644          8.43556          165.093       NO       
      PART-1-1.4507      0.000327482          7.93621          163.573       NO       
      PART-1-1.4508       0.00122101           13.337          164.554       NO       
      PART-1-1.4511      4.43661E-05          8.79775          171.348       NO       
      PART-1-1.4512      1.07857E-05          6.73739           173.69       NO       
      PART-1-1.4513      0.000151092          8.64862          167.938       NO       
      PART-1-1.4514      4.62705E-05          6.30968          169.283       NO       
      PART-1-1.4517      5.15562E-05          8.70111          171.565       NO       
      PART-1-1.4520      2.43274E-05          6.59665          171.204       NO       
      PART-1-1.4521      9.97708E-06          5.04419          171.637       NO       
      PART-1-1.4522      2.86127E-06           5.6952          174.669       NO       
      PART-1-1.4523      9.62007E-06          6.91145          173.406       NO       
      PART-1-1.4525       0.00419648           16.197          155.337       NO       
      PART-1-1.4528      7.30565E-06          4.85066          170.449       NO       
      PART-1-1.4531      2.08524E-06          4.05868          172.115       NO       
      PART-1-1.4532       1.0005E-06          3.27229          174.247       NO       
      PART-1-1.4533      6.01107E-06          5.32818          173.087       NO       
      PART-1-1.4534       0.00410062          13.6284          159.333       NO       
      PART-1-1.4535       2.9297E-06          4.19347          173.159       NO       
      PART-1-1.4538      3.14182E-06          5.50343          174.957       NO       
      PART-1-1.4541       1.9406E-06           4.4697          174.306       NO       
      PART-1-1.4568      4.80472E-05          7.12388          170.492       NO       
      PART-1-1.4573      0.000124349          7.43077          164.567       NO       
      PART-1-1.4580        0.0159913          15.9458          154.516       NO       
      PART-1-1.4602      0.000573736          12.0628          166.703       NO       
      PART-1-1.4643       0.00045622          11.4213          167.385       NO       
      PART-1-1.4644      0.000321712          3.29643          167.062       NO       
      PART-1-1.4649      0.000340659          4.21582          166.264       NO       
      PART-1-1.4652      0.000632292          12.3749          163.783       NO       
      PART-1-1.4657      0.000449066          20.3048          156.526       NO       
      PART-1-1.4670       0.00372178          15.8362          160.732       NO       
      PART-1-1.4674      0.000491362          8.40222          164.511       NO       
      PART-1-1.4679      0.000695765          13.2968          163.012       NO       
      PART-1-1.4692        0.0188173          17.5089          152.963       NO       
      PART-1-1.4694      9.36266E-07          4.25244          176.117       NO       
      PART-1-1.4701      1.39179E-06          4.80146          175.152       NO       
      PART-1-1.4737        0.0091002          11.3768          154.043       NO       
      PART-1-1.4739       0.00205595          14.5921          159.047       NO       
      PART-1-1.4740       0.00899451          11.0183          157.458       NO       
      PART-1-1.4743       0.00676945           17.747          157.767       NO       
      PART-1-1.4746       0.00291633           16.909          161.594       NO       
      PART-1-1.4753      1.20555E-05          6.47668          173.782       NO       
      PART-1-1.4755       0.00388513          10.0747          158.889       NO       
      PART-1-1.4759      0.000503718           11.737          164.665       NO       
      PART-1-1.4764      0.000579124          12.7951          166.393       NO       
      PART-1-1.4768       0.00120995           8.4307          162.645       NO       
      PART-1-1.4771      0.000447032          9.99643          166.061       NO       
      PART-1-1.4778          0.01622          13.5588          153.423       NO       
      PART-1-1.4792       0.00443966          18.1127          159.787       NO       
      PART-1-1.4794      0.000157394          7.23628          166.619       NO       
      PART-1-1.4795       0.00252694          15.8071          162.205       NO       
      PART-1-1.4796       0.00483234          11.0576          156.413       NO       
      PART-1-1.4799       0.00357849          11.3065          158.643       NO       
      PART-1-1.4801      0.000794515          10.6616          164.189       NO       
      PART-1-1.4815      6.24983E-05          7.96734          171.613       NO       
      PART-1-1.4816      0.000983976          12.3083          165.451       NO       
      PART-1-1.4819        0.0111802          14.5169          157.461       NO       
      PART-1-1.4825       0.00144456          9.89948          158.285       NO       
[...]
     PART-1-1.71017         0.118694          9.69821           132.21       NO       
     PART-1-1.71018        0.0548819          7.56647          149.916       NO       
     PART-1-1.71019        0.0364072          3.84561          172.672       NO       
     PART-1-1.71021      0.000485856          14.0485          167.359       NO       
     PART-1-1.71154        0.0155881          31.6954          141.961       NO       
     PART-1-1.71165       0.00724387          15.8033          159.728       NO       
     PART-1-1.71411        0.0178547          24.3898          152.579       NO       
     PART-1-1.71428      0.000153641          4.78343          169.389       NO       
     PART-1-1.71443        0.0165256          11.1066          160.402       NO       
     PART-1-1.71444        0.0129414          21.8912          146.648       NO       
     PART-1-1.71481      6.76654E-06           1.3782           176.56       NO       
     PART-1-1.71483      3.48619E-05         0.649725          178.435       NO       
     PART-1-1.71484        1.891E-05         0.654145          178.037       NO       
     PART-1-1.71554       0.00944555          12.1842          153.203       NO       
     PART-1-1.71573      1.32195E-26      1.36337E-05             180.       NO       
     PART-1-1.71575       0.00617575          38.1096          144.267       NO       
     PART-1-1.71657        0.0197005          13.6246          160.158       NO       
     PART-1-1.71663         0.126058          8.22985          160.583       NO       
     PART-1-1.71677        0.0139526          24.5404          151.331       NO       
     PART-1-1.71692      3.89134E-06           2.2152          170.285       NO       
     PART-1-1.71693      9.19801E-06          6.48929          171.952       NO       
     PART-1-1.71694      8.67377E-05          11.3829          170.848       NO       
     PART-1-1.71695       0.00354452          8.78966          154.258       NO       
     PART-1-1.71696       0.00774652          17.1141          151.118       NO       
     PART-1-1.71697       6.5359E-06          6.16794          167.604       NO       
     PART-1-1.71698        0.0112278          7.68756          159.192       NO       
     PART-1-1.71699      2.94159E-05          8.52121          172.161       NO       
     PART-1-1.71744       0.00437271          19.3483          157.329       NO       
     PART-1-1.72066       7.5607E-06          1.72045          176.703       NO       
     PART-1-1.72075      0.000963322          48.9329          161.294       NO       
     PART-1-1.72082       1.1812E-06          2.46587          175.111       NO       
     PART-1-1.72083      5.62213E-05          21.9851          164.427       NO       
     PART-1-1.72084      0.000630618          14.2212          155.175       NO       
     PART-1-1.72085      3.45114E-06          2.50749          176.468       NO       
     PART-1-1.72106        0.0134578            18.68          147.924       NO       
     PART-1-1.72120        0.0110762          10.4352          161.331       NO       
     PART-1-1.72122        0.0356098          9.95374          152.028       NO       
     PART-1-1.72125         0.018258          16.9353          151.604       NO       
     PART-1-1.74109        0.0124097          17.1518          153.101       NO       
     PART-1-1.74118       0.00159422           11.915           162.04       NO       
     PART-1-1.74122        0.0124087          17.1516          153.102       NO       
     PART-1-1.74131        0.0124094          17.1518          153.101       NO       
     PART-1-1.74152        0.0124099           17.152          153.101       NO       
     PART-1-1.74153        0.0165847          18.4853          151.213       NO       
     PART-1-1.74155        0.0172574          17.7913           150.71       NO       
     PART-1-1.74160       0.00195631           12.756          161.232       NO       
     PART-1-1.74163        0.0024403          14.3382          160.439       NO       
     PART-1-1.74169       0.00244023          14.3382          160.439       NO       
     PART-1-1.74187         0.016585          18.4857          151.213       NO       
     PART-1-1.74188        0.0124099          17.1518          153.101       NO       
     PART-1-1.74192       0.00244008          14.3378          160.439       NO       
     PART-1-1.74212       0.00435312          11.2357          132.411       NO       
     PART-1-1.74215       0.00333021          16.4836           158.94       NO       
     PART-1-1.74217       0.00518142          16.6129          160.046       NO       
     PART-1-1.74247       0.00588187           17.302          159.375       NO       
     PART-1-1.74248       0.00482793          11.6218          131.618       NO       
     PART-1-1.74252        0.0015947          11.9159          162.039       NO       
     PART-1-1.74306       0.00482793          11.6218          131.618       NO       
     PART-1-1.74308        0.0177965          21.2715          149.608       NO       
     PART-1-1.74310       0.00332637           16.479          158.945       NO       
     PART-1-1.74313         0.015563          16.4331          153.017       NO       
     PART-1-1.74468       0.00441542          19.4534          161.772       NO       
     PART-1-1.74481        0.0156344          20.4748           149.26       NO       
     PART-1-1.74506        0.0156353          20.4747           149.26       NO       
     PART-1-1.74508       0.00482769          11.6214          131.618       NO       
     PART-1-1.74509       0.00350534          13.3542          163.332       NO       
     PART-1-1.74518       0.00350891           13.357          163.328       NO       
     PART-1-1.74521        0.0033271          16.4797          158.944       NO       
     PART-1-1.74532        0.0165843          18.4854          151.213       NO       
     PART-1-1.74534         0.003509          13.3571          163.328       NO       
     PART-1-1.74537       0.00332703          16.4796          158.944       NO       
     PART-1-1.74561        0.0169473          16.2548          151.061       NO       
     PART-1-1.74569         0.016942          16.2551          151.062       NO       
     PART-1-1.74573       0.00588188           17.302          159.375       NO       
     PART-1-1.74643       0.00633111           19.335           156.65       NO       
     PART-1-1.74669        0.0156357          20.4752          149.259       NO       
     PART-1-1.74723       0.00632883          19.3343          156.652       NO       
     PART-1-1.74730        0.0124077          17.1532          153.101       NO       
     PART-1-1.74761       0.00332841          16.4815          158.943       NO       
     PART-1-1.74868       0.00244027          14.3382          160.439       NO       
     PART-1-1.74881       0.00244027          14.3382          160.439       NO       
     PART-1-1.74902        0.0156351           20.475           149.26       NO       
     PART-1-1.74963        0.0124087          17.1512          153.102       NO       
     PART-1-1.74965        0.0124089          17.1518          153.101       NO       
     PART-1-1.74969       0.00195653          12.7564          161.231       NO       
     PART-1-1.74983       0.00332636           16.479          158.945       NO       
     PART-1-1.75009        0.0124065          17.1514          153.103       NO       
     PART-1-1.75012       0.00159472          11.9162          162.039       NO       
     PART-1-1.75015        0.0192548          22.4292          150.844       NO       
     PART-1-1.75036       0.00350535           13.354          163.332       NO       
     PART-1-1.76301        0.0109144          14.3785          150.099       NO       
     PART-1-1.76908        0.0109222          14.3801          150.094       NO       
     PART-1-1.77482       0.00195793          12.7595          161.228       NO       
     PART-1-1.77488       0.00262472          18.4748          164.433       NO       
     PART-1-1.77518       0.00748563          26.2242          155.507       NO       
     PART-1-1.77580        0.0122475          11.0752          117.409       NO       
     PART-1-1.77584        0.0171942          24.4206          130.824       NO       
     PART-1-1.77599        0.0124061          17.1522          153.102       NO       
     PART-1-1.77678       0.00350535           13.354          163.332       NO       
     PART-1-1.77719        0.0033286          16.4816          158.943       NO       
     PART-1-1.77747       0.00234527          13.0321          163.764       NO       
     PART-1-1.77760        0.0130616           13.619           151.02       NO       
     PART-1-1.77795        0.0124097          17.1517          153.101       NO       
     PART-1-1.77801        0.0172568          17.7911           150.71       NO       
     PART-1-1.77807       0.00159407          11.9147          162.041       NO       
     PART-1-1.77826       0.00441503          19.4527          161.772       NO       
     PART-1-1.77893        0.0130615          13.6189          151.019       NO       
     PART-1-1.77918        0.0124085          17.1516          153.102       NO       
     PART-1-1.77921        0.0172592          17.7909          150.708       NO       
     PART-1-1.77934       0.00441554          19.4535          161.771       NO       
     PART-1-1.77943        0.0033284          16.4815          158.943       NO       
     PART-1-1.77954       0.00231517          13.9669          160.632       NO       
     PART-1-1.77957       0.00332488          16.4772          158.948       NO       
     PART-1-1.77958        0.0165847          18.4853          151.213       NO       
     PART-1-1.77963        0.0172575          17.7913           150.71       NO       
     PART-1-1.78014       0.00332847          16.4815          158.943       NO       
     PART-1-1.78104       0.00231508          13.9668          160.632       NO       
     PART-1-1.78311       0.00441505          19.4527          161.772       NO       
     PART-1-1.78589       0.00332487          16.4772          158.948       NO       
     PART-1-1.80215        0.0033264           16.479          158.945       NO       
     PART-1-1.80301       0.00332554          16.4771          158.947       NO       
     PART-1-1.80351       0.00332683          16.4794          158.944       NO       
     PART-1-1.80368        0.0124097          17.1517          153.101       NO       
     PART-1-1.80406       0.00229611          9.23011            137.6       NO       
     PART-1-1.80419        0.0165843          18.4854          151.213       NO       
     PART-1-1.80436       0.00168263          21.1792          163.403       NO       
     PART-1-1.80469       0.00350877          13.3558          163.328       NO       
     PART-1-1.80480        0.0019564          12.7562          161.231       NO       
     PART-1-1.80513       0.00332684          16.4794          158.944       NO       
     PART-1-1.80531        0.0124088          17.1512          153.102       NO       
     PART-1-1.80542        0.0130616           13.619           151.02       NO       
     PART-1-1.80567       0.00332499          16.4774          158.948       NO       
     PART-1-1.80585       0.00332693          16.4793          158.945       NO       
     PART-1-1.80622       0.00195647          12.7563          161.231       NO       
     PART-1-1.80665       0.00332694          16.4795          158.944       NO       
     PART-1-1.80690       0.00332529          16.4776          158.947       NO       
     PART-1-1.80769       0.00332683          16.4794          158.944       NO       
     PART-1-1.80823       0.00332837          16.4814          158.943       NO       
     PART-1-1.80829        0.0165786           18.485          151.217       NO       
     PART-1-1.80906       0.00195631           12.756          161.232       NO       
     PART-1-1.80931       0.00332685          16.4795          158.945       NO       
     PART-1-1.80961       0.00441563          19.4535          161.771       NO       
     PART-1-1.80964       0.00332853          16.4817          158.943       NO       
     PART-1-1.80972       0.00250268          14.5046          160.343       NO       
     PART-1-1.81000       0.00159463           11.916           162.04       NO       
     PART-1-1.81017       0.00332516          16.4775          158.947       NO       
     PART-1-1.81042        0.0100313          15.1235          148.354       NO       
     PART-1-1.81049       0.00332839          16.4814          158.943       NO       
     PART-1-1.81087        0.0124098          17.1518          153.101       NO       
     PART-1-1.81110        0.0131229          26.0612          151.738       NO       
     PART-1-1.81125        0.0124075          17.1524          153.101       NO       
     PART-1-1.81270         0.012405          17.1519          153.102       NO       
     PART-1-1.81362       0.00477803          21.2976          157.889       NO       
     PART-1-1.81507        0.0124089          17.1518          153.101       NO       
     PART-1-1.81517        0.0172562          17.7909          150.711       NO       
     PART-1-1.81673       0.00332684          16.4794          158.944       NO       
     PART-1-1.81772        0.0172563           17.791          150.711       NO       
     PART-1-1.81787        0.0124088          17.1512          153.102       NO       
     PART-1-1.81804       0.00935944          25.7351          153.115       NO       
     PART-1-1.81849       0.00588104          17.3013          159.376       NO       
     PART-1-1.81893       0.00332516          16.4775          158.947       NO       
     PART-1-1.82011       0.00231442          13.9662          160.633       NO       
     PART-1-1.82050        0.0130611          13.6187           151.02       NO       
     PART-1-1.82079        0.0100378          15.1276          148.351       NO       
  
  
 --------------------------------------------------------------------------------
 Elements with small volume
  
      Element       Adjusted nodes 
 ------------------ -------------- 
       PART-1-1.221       NO       
       PART-1-1.372       NO       
      PART-1-1.3323       NO       
      PART-1-1.4422       NO       
      PART-1-1.5161       NO       
     PART-1-1.15922       NO       
     PART-1-1.16506       NO       
     PART-1-1.16903       NO       
     PART-1-1.16914       NO       
     PART-1-1.18185       NO       
     PART-1-1.21423       NO       
     PART-1-1.21489       NO       
     PART-1-1.21542       NO       
     PART-1-1.21554       NO       
     PART-1-1.48257       NO       
     PART-1-1.50112       NO       
     PART-1-1.50119       NO       
     PART-1-1.50123       NO       
     PART-1-1.51883       NO       
     PART-1-1.51891       NO       
     PART-1-1.52009       NO       
     PART-1-1.52181       NO       
     PART-1-1.52287       NO       
     PART-1-1.52725       NO       
     PART-1-1.52729       NO       
     PART-1-1.52963       NO       
     PART-1-1.52964       NO       
     PART-1-1.52968       NO       
     PART-1-1.53007       NO       
     PART-1-1.53067       NO       
     PART-1-1.53069       NO       
     PART-1-1.53236       NO       
     PART-1-1.53303       NO       
     PART-1-1.53555       NO       
     PART-1-1.53584       NO       
     PART-1-1.54266       NO       
     PART-1-1.54270       NO       
     PART-1-1.54374       NO       
     PART-1-1.54736       NO       
     PART-1-1.56306       NO       
     PART-1-1.56344       NO       
     PART-1-1.56352       NO       
     PART-1-1.56357       NO       
     PART-1-1.56893       NO       
     PART-1-1.56899       NO       
     PART-1-1.58767       NO       
     PART-1-1.58778       NO       
     PART-1-1.58795       NO       
     PART-1-1.59598       NO       
     PART-1-1.61169       NO       
     PART-1-1.61175       NO       
     PART-1-1.61198       NO       
     PART-1-1.61205       NO       
     PART-1-1.61219       NO       
     PART-1-1.63440       NO       
     PART-1-1.63523       NO       
     PART-1-1.63525       NO       
     PART-1-1.67851       NO       
     PART-1-1.72063       NO       
     PART-1-1.72067       NO       
     PART-1-1.72074       NO       
  
  *Step, name=Step-1, nlgeom=NO, perturbation
  *output, field, variable=PRESELECT
  *Step, name=Step-1, nlgeom=NO, perturbation

 ***ERROR: NODE SET ASSEMBLY_BOTTOM_SET_PIN HAS NOT BEEN DEFINED

 ***ERROR: NODE SET ASSEMBLY_BOTTOM_SET_PIN HAS NOT BEEN DEFINED

 ***ERROR: NODE SET ASSEMBLY_TOP_SET_PIN HAS NOT BEEN DEFINED

 ***ERROR: NODE SET ASSEMBLY_TOP_SET_PIN HAS NOT BEEN DEFINED

 ***ERROR: NODE SET ASSEMBLY_TOP_SET_PIN HAS NOT BEEN DEFINED

 ***ERROR: NODE SET ASSEMBLY_TOP_SET_PIN HAS NOT BEEN DEFINED
  *Step, name=Step-1, nlgeom=NO, perturbation
  *buckle
  *boundary, op=NEW, loadcase=1
  *boundary, op=NEW, loadcase=2
  *boundary, op=NEW, loadcase=1
  *boundary, op=NEW, loadcase=2
  *dsload

 ***ERROR: THE SURFACE ASSEMBLY_TOP_SURFACE HAS NOT BEEN LOCATED
 LINE IMAGE: ASSEMBLY_TOP_SURFACE, P, 1.
  *output, field, variable=PRESELECT
  *endstep
  *Step, name=Step-1, nlgeom=NO, perturbation
  *buckle
  *buckle
  *boundary, op=NEW, loadcase=1

 ***ERROR: A BOUNDARY CONDITION HAS BEEN SPECIFIED ON NODE SET 
           ASSEMBLY_BOTTOM_SET_PIN BUT THIS NODE SET IS NOT ACTIVE IN THE MODEL
  *boundary, op=NEW, loadcase=2

 ***ERROR: A BOUNDARY CONDITION HAS BEEN SPECIFIED ON NODE SET 
           ASSEMBLY_BOTTOM_SET_PIN BUT THIS NODE SET IS NOT ACTIVE IN THE MODEL
  *boundary, op=NEW, loadcase=1

 ***ERROR: A BOUNDARY CONDITION HAS BEEN SPECIFIED ON NODE SET 
           ASSEMBLY_TOP_SET_PIN BUT THIS NODE SET IS NOT ACTIVE IN THE MODEL

 ***ERROR: A BOUNDARY CONDITION HAS BEEN SPECIFIED ON NODE SET 
           ASSEMBLY_TOP_SET_PIN BUT THIS NODE SET IS NOT ACTIVE IN THE MODEL
  *boundary, op=NEW, loadcase=2

 ***ERROR: A BOUNDARY CONDITION HAS BEEN SPECIFIED ON NODE SET 
           ASSEMBLY_TOP_SET_PIN BUT THIS NODE SET IS NOT ACTIVE IN THE MODEL

 ***ERROR: A BOUNDARY CONDITION HAS BEEN SPECIFIED ON NODE SET 
           ASSEMBLY_TOP_SET_PIN BUT THIS NODE SET IS NOT ACTIVE IN THE MODEL
  *endstep

 ***ERROR: NODE SET ASSEMBLY_BOTTOM_SET_PIN HAS NOT BEEN DEFINED

 ***ERROR: NODE SET ASSEMBLY_BOTTOM_SET_PIN HAS NOT BEEN DEFINED

 ***ERROR: NODE SET ASSEMBLY_TOP_SET_PIN HAS NOT BEEN DEFINED

 ***ERROR: NODE SET ASSEMBLY_TOP_SET_PIN HAS NOT BEEN DEFINED

 ***ERROR: NODE SET ASSEMBLY_TOP_SET_PIN HAS NOT BEEN DEFINED

 ***ERROR: NODE SET ASSEMBLY_TOP_SET_PIN HAS NOT BEEN DEFINED



                            P R O B L E M   S I Z E


          NUMBER OF ELEMENTS IS                                 82138
          NUMBER OF ELEMENTS DEFINED BY THE USER AND *TIE       82136
          NUMBER OF NODES IS                                    37235
          NUMBER OF NODES DEFINED BY THE USER                   37235
          TOTAL NUMBER OF VARIABLES IN THE MODEL               111711
          (DEGREES OF FREEDOM PLUS MAX NO. OF ANY LAGRANGE MULTIPLIER
           VARIABLES. INCLUDE *PRINT,SOLVE=YES TO GET THE ACTUAL NUMBER.)





          THE PROGRAM HAS DISCOVERED    41 FATAL ERRORS

               ** EXECUTION IS TERMINATED **

 ***ERROR: Failed to locate set "ASSEMBLY_TOP_SET_PIN".



                              END OF USER INPUT PROCESSING



     JOB TIME SUMMARY
       USER TIME (SEC)      =   3.4000    
       SYSTEM TIME (SEC)    =   1.0000    
       TOTAL CPU TIME (SEC) =   4.4000    
       WALLCLOCK TIME (SEC) =          5
