1

   Abaqus 3DEXPERIENCE R2019x                                  Date 01-May-2020   Time 20:49:42
   For use by TEXAS A_M UNIVERSITY SYSTEM under license from Dassault Systemes or its subsidiary.



                         The Abaqus Software is a product of:

                           Dassault Systemes SIMULIA Corp.
                           1301 Atwood Avenue, Suite 101W
                              Johnston, RI 02919, USA
 


                   The Abaqus Software is available only under license
                   from Dassault Systemes or its subsidiary and may be
                   used or reproduced only in accordance with the terms
                   of such license.
 
                          On machine AERO-MJ09CBE4 
                          you are authorized to run
                          Abaqus/Standard until 11-Jul-2021

                          Your site id is: 200000000002185 


 
                    For assistance or any other information you may
                    obtain contact information for your local office
                    from the world wide web at:

                      http://www.3ds.com/products/simulia/locations/

 
                * * * * * * * * * * * * * * * * * * * * * * * * * * * * * * 
                *                                                         * 
                *                   *****************                     * 
                *                   *  N O T I C E  *                     * 
                *                   *****************                     * 
                *                                                         * 
                *                                                         * 
                *               Abaqus 3DEXPERIENCE R2019x                * 
                *                                                         * 
                *          BUILD ID: 2018_09_24-13.41.51 157541           * 
                *                                                         * 
                *                                                         * 
                *  Please make sure you are using                         * 
                *  release 3DEXPERIENCE R2019x manuals                    * 
                *  plus the notes accompanying this release.              * 
                *                                                         * 
                *                                                         * 
                *                                                         * 
                *                                                         * 
                *                                                         * 
                *   This program may not be used for commercial purposes  * 
                *           without payment of a commercial fee.          * 
                *                                                         * 
                * * * * * * * * * * * * * * * * * * * * * * * * * * * * * * 


 



     PROCESSING PART, INSTANCE, AND ASSEMBLY INFORMATION
   *******************************************************


 ***ERROR: in keyword *RIGIDBODY, file "Buckling_job_1.inp", line 126665: 
           Unknown assembly set TOP_SET_PIN
 ***NOTE: DUE TO AN INPUT ERROR THE ANALYSIS PRE-PROCESSOR HAS BEEN UNABLE TO 
          INTERPRET SOME DATA.  SUBSEQUENT ERRORS MAY BE CAUSED BY THIS OMISSION

 ***ERROR: in keyword *RIGIDBODY, file "Buckling_job_1.inp", line 126667: 
           Unknown assembly set BOTTOM_SET_PIN

 ***ERROR: in keyword *BOUNDARY, file "Buckling_job_1.inp", line 126689: 
           Unknown assembly node set BOTTOM_SET_PIN

 ***ERROR: in keyword *BOUNDARY, file "Buckling_job_1.inp", line 126691: 
           Unknown assembly node set BOTTOM_SET_PIN

 ***ERROR: in keyword *BOUNDARY, file "Buckling_job_1.inp", line 126694: 
           Unknown assembly node set TOP_SET_PIN

 ***ERROR: in keyword *BOUNDARY, file "Buckling_job_1.inp", line 126694: 
           Unknown assembly node set TOP_SET_PIN

 ***ERROR: in keyword *BOUNDARY, file "Buckling_job_1.inp", line 126697: 
           Unknown assembly node set TOP_SET_PIN

 ***ERROR: in keyword *BOUNDARY, file "Buckling_job_1.inp", line 126697: 
           Unknown assembly node set TOP_SET_PIN

     END PROCESSING PART, INSTANCE, AND ASSEMBLY INFORMATION
   ***********************************************************




     OPTIONS BEING PROCESSED
   ***************************


  *Heading
  *Node
  *Element, type=C3D4
  *Nset, nset=ASSEMBLY_PART-1-1_FIBRE_SET2
  *Nset, nset=ASSEMBLY_PART-1-1_FIBRE_SET3
  *Nset, nset=ASSEMBLY_PART-1-1_FIBRE_SET4
  *Nset, nset=ASSEMBLY_PART-1-1_FIBRE_SET5
  *Elset, elset=ASSEMBLY_PART-1-1_FIBRE_SET2
  *Elset, elset=ASSEMBLY_PART-1-1_FIBRE_SET3
  *Elset, elset=ASSEMBLY_PART-1-1_FIBRE_SET4
  *Elset, elset=ASSEMBLY_PART-1-1_FIBRE_SET5
  *Node
  *Nset, nset=ASSEMBLY__PICKEDSET19
  *Nset, nset=ASSEMBLY__PICKEDSET21

 ***WARNING: BUCKLE OPTION IS NOT SUPPORTED FOR ELEMENT LOOP PARALLELIZATION. 
             IF YOU HAVE SPECIFIED ELEMENT LOOP PARALLELIZATION, IT WILL BE 
             TURNED OFF FOR THIS ANALYSIS.
 LINE IMAGE: *buckle
  *material, name=FIBRE_MATERIAL
  *elastic
  *material, name=MATRIX_MATERIAL
  *elastic
  *solidsection, elset=ASSEMBLY_PART-1-1_FIBRE_SET2, material=FIBRE_MATERIAL
  *solidsection, elset=ASSEMBLY_PART-1-1_FIBRE_SET3, material=FIBRE_MATERIAL
  *solidsection, elset=ASSEMBLY_PART-1-1_FIBRE_SET4, material=FIBRE_MATERIAL
  *solidsection, elset=ASSEMBLY_PART-1-1_FIBRE_SET5, material=FIBRE_MATERIAL
  *solidsection, elset=ASSEMBLY_PART-1-1_FIBRE_SET2, material=FIBRE_MATERIAL
  *solidsection, elset=ASSEMBLY_PART-1-1_FIBRE_SET3, material=FIBRE_MATERIAL
  *solidsection, elset=ASSEMBLY_PART-1-1_FIBRE_SET4, material=FIBRE_MATERIAL
  *solidsection, elset=ASSEMBLY_PART-1-1_FIBRE_SET5, material=FIBRE_MATERIAL
  *rigidbody, refnode=ASSEMBLY__PICKEDSET19, pinnset=ASSEMBLY_TOP_SET_PIN
  *rigidbody, refnode=ASSEMBLY__PICKEDSET21, pinnset=ASSEMBLY_BOTTOM_SET_PIN
  *rigidbody, refnode=ASSEMBLY__PICKEDSET19, pinnset=ASSEMBLY_TOP_SET_PIN
  *rigidbody, refnode=ASSEMBLY__PICKEDSET21, pinnset=ASSEMBLY_BOTTOM_SET_PIN
  *rigidbody, refnode=ASSEMBLY__PICKEDSET19, pinnset=ASSEMBLY_TOP_SET_PIN
  *rigidbody, refnode=ASSEMBLY__PICKEDSET21, pinnset=ASSEMBLY_BOTTOM_SET_PIN
  *rigidbody, refnode=ASSEMBLY__PICKEDSET19, pinnset=ASSEMBLY_TOP_SET_PIN

 ***ERROR: NODE SET ASSEMBLY_TOP_SET_PIN HAS NOT BEEN DEFINED
  *rigidbody, refnode=ASSEMBLY__PICKEDSET21, pinnset=ASSEMBLY_BOTTOM_SET_PIN

 ***ERROR: NODE SET ASSEMBLY_BOTTOM_SET_PIN HAS NOT BEEN DEFINED
  *rigidbody, refnode=ASSEMBLY__PICKEDSET19, pinnset=ASSEMBLY_TOP_SET_PIN

 ***ERROR: NODE SET ASSEMBLY_TOP_SET_PIN HAS NOT BEEN DEFINED

 ***ERROR: UNABLE TO LOCATE NODE SET ASSEMBLY_TOP_SET_PIN. THE NODE SET MUST 
           HAVE BEEN PREVIOUSLY DEFINED. NODES IN THIS NODE SET WILL NOT BE 
           PART OF RIGID BODY
 LINE IMAGE: *rigidbody, refnode=ASSEMBLY__PICKEDSET19, 
             pinnset=ASSEMBLY_TOP_SET_PIN
  *rigidbody, refnode=ASSEMBLY__PICKEDSET21, pinnset=ASSEMBLY_BOTTOM_SET_PIN

 ***ERROR: NODE SET ASSEMBLY_BOTTOM_SET_PIN HAS NOT BEEN DEFINED

 ***ERROR: UNABLE TO LOCATE NODE SET ASSEMBLY_BOTTOM_SET_PIN. THE NODE SET MUST 
           HAVE BEEN PREVIOUSLY DEFINED. NODES IN THIS NODE SET WILL NOT BE 
           PART OF RIGID BODY
 LINE IMAGE: *rigidbody, refnode=ASSEMBLY__PICKEDSET21, 
             pinnset=ASSEMBLY_BOTTOM_SET_PIN

 ***ERROR: SURFACE DEFINITION ASSEMBLY_TOP_SURFACE NOT FOUND.
  *rigidbody, refnode=ASSEMBLY__PICKEDSET19, pinnset=ASSEMBLY_TOP_SET_PIN
  *rigidbody, refnode=ASSEMBLY__PICKEDSET21, pinnset=ASSEMBLY_BOTTOM_SET_PIN
  *rigidbody, refnode=ASSEMBLY__PICKEDSET19, pinnset=ASSEMBLY_TOP_SET_PIN

 ***ERROR: NODE SET ASSEMBLY_TOP_SET_PIN HAS NOT BEEN DEFINED

 ***ERROR: UNABLE TO LOCATE NODE SET ASSEMBLY_TOP_SET_PIN. THE NODE SET MUST 
           HAVE BEEN PREVIOUSLY DEFINED. NODES IN THIS NODE SET WILL NOT BE 
           PART OF RIGID BODY
 LINE IMAGE: *rigidbody, refnode=ASSEMBLY__PICKEDSET19, 
             pinnset=ASSEMBLY_TOP_SET_PIN
  *rigidbody, refnode=ASSEMBLY__PICKEDSET21, pinnset=ASSEMBLY_BOTTOM_SET_PIN

 ***ERROR: NODE SET ASSEMBLY_BOTTOM_SET_PIN HAS NOT BEEN DEFINED

 ***ERROR: UNABLE TO LOCATE NODE SET ASSEMBLY_BOTTOM_SET_PIN. THE NODE SET MUST 
           HAVE BEEN PREVIOUSLY DEFINED. NODES IN THIS NODE SET WILL NOT BE 
           PART OF RIGID BODY
 LINE IMAGE: *rigidbody, refnode=ASSEMBLY__PICKEDSET21, 
             pinnset=ASSEMBLY_BOTTOM_SET_PIN
  *boundary, op=NEW, loadcase=1
  *boundary, op=NEW, loadcase=2
  *boundary, op=NEW, loadcase=1
  *boundary, op=NEW, loadcase=2
  *boundary, op=NEW, loadcase=1
  *boundary, op=NEW, loadcase=2
  *boundary, op=NEW, loadcase=1
  *boundary, op=NEW, loadcase=2
  *rigidbody, refnode=ASSEMBLY__PICKEDSET19, pinnset=ASSEMBLY_TOP_SET_PIN
  *rigidbody, refnode=ASSEMBLY__PICKEDSET21, pinnset=ASSEMBLY_BOTTOM_SET_PIN
  *output, field, variable=PRESELECT
  *output, field, variable=PRESELECT
  *output, field, variable=PRESELECT

 ***ERROR: NODE SET ASSEMBLY_TOP_SET_PIN HAS NOT BEEN DEFINED

 ***ERROR: NODE SET ASSEMBLY_BOTTOM_SET_PIN HAS NOT BEEN DEFINED
  
                               E L E M E N T   Q U A L I T Y  C H E C K S        
  
  
 ***NOTES: DISTORTED ISOPARAMETRIC ELEMENTS: ANGLE BETWEEN ISOPARAMETRIC LINES 
           IS LESS THAN 45 DEGREES OR GREATER THAN 135 DEGREES.
  
           TETRAHEDRAL QUALITY MEASURE: VOLUME OF TETRAHEDRON DIVIDED BY THE 
           VOLUME OF EQUILATERAL TETRAHEDRON WITH SAME CIRCUMSPHERE RADIUS; 
           0 FOR DEGENERATE TETRAHEDRON AND 1 FOR EQUILATERIAL TETRAHEDRON. IT 
           IS RECOMMENDED THAT THE TETRAHEDRAL QUALITY MEASURE BE GREATER THAN 
           0.02, THE MIN INTERIOR (DIHEDRAL) ANGLE BE GREATER THAN 10 DEGREES, 
           AND THE MAX INTERIOR (DIHEDRAL) ANGLE BE LESS THAN 160 DEGREES. 
  
           MODIFIED TETRAHEDRAL QUALITY MEASURE: ANGLES BETWEEN THE TWO LINE 
           SEGMENTS ON EACH EDGE; THE EDGES OF MODIFIED TETRAHEDRAL SHOULD BE 
           AS STRAIGHT AS POSSIBLE. IT IS RECOMMENDED THAT THE ANGLE BETWEEN 
           THE TWO LINE SEGMENTS ON EACH EDGE IS BETWEEN 160 AND 180 DEGREES. 
  
           TRIANGULAR QUALITY MEASURE: AREA OF TRIANGLE DIVIDED BY THE AREA OF 
           EQUILATERAL TRIANGLE WITH SAME CIRCUMCIRCLE RADIUS; 0 FOR DEGENERATE 
           TRIANGLE AND 1 FOR EQUILATERAL TRIANGLE. IT IS RECOMMENDED THAT THE
           TRIANGULAR QUALITY MEASURE BE GREATER THAN 0.01, THE MIN INTERIOR 
           ANGLE BE GREATER THAN 10 DEGREES, AND THE MAX INTERIOR ANGLE BE LESS 
           THAN 160 DEGREES. 
  
           NODAL ADJUSTMENTS ARISING FROM CONTACT INTERACTIONS AND/OR TIE 
           CONSTRAINTS CAN CAUSE SEVERE ELEMENT DISTORTION. IT MAY BE NECESSARY 
           TO REMESH IN ORDER TO REDUCE THE AMOUNT OF ADJUSTMENT. 

 ***WARNING: 5882 elements are distorted. Either the isoparametric angles are 
             out of the suggested limits or the triangular or tetrahedral 
             quality measure is bad. The elements have been identified in 
             element set WarnElemDistorted.

 ***ERROR: The volume of 7 elements is zero, small, or negative. Check 
           coordinates or node numbering, or modify the mesh seed. In the case 
           of a tetrahedron this error may indicate that all nodes are located 
           very nearly in a plane. The elements have been identified in element 
           set ErrElemVolSmallNegZero.
  
 --------------------------------------------------------------------------------
 Distorted tetrahedral elements
  
      Element       Quality measure     Min angle        Max angle     Adjusted nodes 
 ------------------ ---------------- ---------------- ---------------- -------------- 
         PART-1-1.4       0.00880333          17.6881          150.894       NO       
         PART-1-1.9       0.00216523          15.5054          162.549       NO       
        PART-1-1.12       0.00196507          15.1306          162.692       NO       
        PART-1-1.15       0.00336006          9.52896           161.07       NO       
        PART-1-1.24      0.000302078          7.36843          165.959       NO       
        PART-1-1.26      0.000182364          7.57958          166.504       NO       
        PART-1-1.27      0.000138597          10.0798          168.119       NO       
        PART-1-1.28       0.00242324          14.7687          158.342       NO       
        PART-1-1.29       0.00223857          15.8112          162.034       NO       
        PART-1-1.33       0.00197605          15.2152          163.281       NO       
        PART-1-1.58        0.0120098          13.0914          150.298       NO       
        PART-1-1.60        0.0158618           11.816          155.028       NO       
        PART-1-1.66       0.00293968          16.6024          161.554       NO       
        PART-1-1.71        0.0110875          12.1724           156.02       NO       
        PART-1-1.73        0.0102686          11.9615          152.348       NO       
        PART-1-1.74       0.00432972          16.1853          155.201       NO       
        PART-1-1.83      1.04945E-17       0.00190969          179.998       NO       
        PART-1-1.89       0.00280902          16.0344          161.286       NO       
       PART-1-1.151      0.000382926          12.0091          165.198       NO       
       PART-1-1.161        0.0034457          8.90558          161.823       NO       
       PART-1-1.188      4.49153E-05          7.14125           170.54       NO       
       PART-1-1.194       0.00237418          10.4593          160.227       NO       
       PART-1-1.265        0.0189976          12.6351          154.515       NO       
       PART-1-1.286       0.00361251          10.7654          156.554       NO       
       PART-1-1.302       0.00717211          16.8443          158.476       NO       
       PART-1-1.304        0.0108318          20.2651          156.433       NO       
       PART-1-1.306       0.00293908          9.71007          159.863       NO       
       PART-1-1.307       0.00349372          10.4591          159.953       NO       
       PART-1-1.308       0.00609673          16.8751          153.225       NO       
       PART-1-1.356        0.0182924          11.9066          154.114       NO       
       PART-1-1.360       0.00077501          10.7395          164.229       NO       
       PART-1-1.378        0.0195703          23.0192          150.695       NO       
       PART-1-1.412       0.00600587          10.1736          158.101       NO       
       PART-1-1.449       0.00176662          14.9691          162.785       NO       
       PART-1-1.450        0.0172453          13.5384          152.784       NO       
       PART-1-1.451        0.0177714          20.0831          145.277       NO       
       PART-1-1.461       0.00204145          15.4022          162.637       NO       
       PART-1-1.518      0.000585518          11.8189          166.874       NO       
       PART-1-1.587      0.000420732          11.3803          167.604       NO       
       PART-1-1.608      0.000664606          12.3099          166.369       NO       
       PART-1-1.618       0.00306217          10.9031          158.218       NO       
       PART-1-1.619       0.00246426          15.5144          157.923       NO       
       PART-1-1.667      7.59723E-05          8.67974          171.122       NO       
       PART-1-1.702       0.00138955          9.17937          159.627       NO       
       PART-1-1.757       0.00171124          14.7499          163.104       NO       
       PART-1-1.786      0.000450594          12.4497            164.6       NO       
       PART-1-1.799        0.0137654          12.9099          151.018       NO       
       PART-1-1.807        0.0188485          22.1423          151.506       NO       
       PART-1-1.839       0.00042108          8.52028           164.73       NO       
       PART-1-1.840      9.12326E-05          9.46123          170.203       NO       
       PART-1-1.841      6.07921E-05           5.9464          168.896       NO       
       PART-1-1.843      4.99477E-05          6.34473          169.121       NO       
       PART-1-1.845      4.56623E-05          8.74404          170.364       NO       
       PART-1-1.846      5.55827E-05          8.81943          171.475       NO       
       PART-1-1.847      0.000491922          12.5761          167.052       NO       
       PART-1-1.848      5.39455E-05          8.24311          171.704       NO       
       PART-1-1.849      0.000387539          9.79613           166.35       NO       
       PART-1-1.850        0.0118678          12.9491          154.734       NO       
       PART-1-1.851        0.0011783          9.63736          159.011       NO       
       PART-1-1.852        0.0143274          19.7027          146.892       NO       
       PART-1-1.853          0.01544          22.2185          153.739       NO       
       PART-1-1.867      0.000838238          8.33555          163.523       NO       
       PART-1-1.868       0.00605917          11.3088           155.69       NO       
       PART-1-1.869       0.00317995          16.3132          161.373       NO       
       PART-1-1.870       0.00529041          18.5523            159.1       NO       
       PART-1-1.871        0.0042175          11.4382          158.266       NO       
       PART-1-1.872      0.000691883          12.3744           166.26       NO       
       PART-1-1.873      0.000226898          7.84029          166.127       NO       
       PART-1-1.874      8.31035E-05           7.7516          169.317       NO       
       PART-1-1.902        0.0180858          20.2496          145.001       NO       
       PART-1-1.969       0.00389056           17.615          160.479       NO       
       PART-1-1.995       0.00149079          13.7118          160.491       NO       
       PART-1-1.996      0.000106959          9.53268          168.691       NO       
       PART-1-1.997      0.000180385          10.6812          169.027       NO       
      PART-1-1.1023        0.0020626          9.41785          159.778       NO       
      PART-1-1.1027      0.000565463          11.5219          164.417       NO       
      PART-1-1.1040       0.00293187            16.13          160.908       NO       
      PART-1-1.1045        0.0196868          17.6572          152.521       NO       
      PART-1-1.1046      0.000686722          8.87275          162.495       NO       
      PART-1-1.1047       0.00111585          13.4292          165.279       NO       
      PART-1-1.1048      0.000436656          11.7055          165.051       NO       
      PART-1-1.1050       0.00190212          15.4368          162.346       NO       
      PART-1-1.1051      0.000658136           11.061          164.561       NO       
      PART-1-1.1052      0.000911891          8.69394          164.187       NO       
      PART-1-1.1070        0.0171593          22.3805          153.166       NO       
      PART-1-1.1088      0.000717516          12.4677           163.33       NO       
      PART-1-1.1090       0.00280918          16.1212          161.524       NO       
      PART-1-1.1099      0.000504017          8.72016          164.301       NO       
      PART-1-1.1100      0.000590765          12.9492          166.584       NO       
      PART-1-1.1101      0.000501366          12.4215          164.319       NO       
      PART-1-1.1102      0.000469707          10.0723          165.887       NO       
      PART-1-1.1103        0.0155956          16.1953          154.496       NO       
      PART-1-1.1118       0.00284942          15.0557          161.748       NO       
      PART-1-1.1122       0.00523321          11.4171          155.496       NO       
      PART-1-1.1125       0.00400473          17.7007          160.282       NO       
      PART-1-1.1126      0.000693876          10.3367          164.796       NO       
      PART-1-1.1127      0.000585603           12.996          166.235       NO       
      PART-1-1.1130      0.000780749          10.6756          164.259       NO       
      PART-1-1.1133         0.003225          11.0563          159.141       NO       
      PART-1-1.1134        0.0024767          15.7424          162.216       NO       
      PART-1-1.1149      0.000546609          9.03056          163.806       NO       
      PART-1-1.1151      0.000637578          13.3288          166.227       NO       
      PART-1-1.1152       0.00127576          9.76265          158.438       NO       
      PART-1-1.1157      0.000710309          7.91372          164.286       NO       
      PART-1-1.1158        0.0157438          13.7772          153.129       NO       
      PART-1-1.1160       0.00122772          13.7597          164.084       NO       
      PART-1-1.1166       0.00538878          11.1003          156.481       NO       
      PART-1-1.1175       0.00552882          18.9598            158.7       NO       
      PART-1-1.1176       0.00284214          16.2262          161.842       NO       
      PART-1-1.1178      0.000884862           10.815          163.775       NO       
      PART-1-1.1264        0.0199054          11.4582          154.555       NO       
      PART-1-1.1266       0.00293459          16.5572          161.366       NO       
      PART-1-1.1286       0.00224746          9.68513           161.64       NO       
      PART-1-1.1288       0.00344905          12.8165          159.863       NO       
      PART-1-1.1289        0.0028367          15.7969          162.231       NO       
      PART-1-1.1302       0.00845983          17.7999          157.335       NO       
      PART-1-1.1305       0.00732387          11.0928          157.755       NO       
      PART-1-1.1306       0.00965347          19.6098          157.046       NO       
      PART-1-1.1326       0.00157106          14.0143          163.631       NO       
      PART-1-1.1329       0.00103356          11.7639          163.242       NO       
      PART-1-1.1330       0.00164273            9.305          159.465       NO       
      PART-1-1.1331        0.0032383          16.7557          160.544       NO       
      PART-1-1.1333       0.00195634          9.40651          161.625       NO       
      PART-1-1.1339        0.0191472           22.044          151.713       NO       
      PART-1-1.1353      0.000762563           11.187          163.896       NO       
      PART-1-1.1355        0.0017281          10.0727           161.71       NO       
      PART-1-1.1356       0.00212337          15.5605          162.769       NO       
      PART-1-1.1434       0.00221553          16.1056          162.036       NO       
      PART-1-1.1446      0.000551755           8.7499          164.122       NO       
      PART-1-1.1449       0.00136083          11.0184          163.935       NO       
      PART-1-1.1472      0.000925843          12.8544          162.401       NO       
      PART-1-1.1477      0.000606943          8.10945           164.07       NO       
      PART-1-1.1480       0.00338311          10.5462          157.343       NO       
      PART-1-1.1483       0.00305648          16.7991           161.41       NO       
      PART-1-1.1484      0.000705318          10.6263          164.492       NO       
      PART-1-1.1487       0.00247785          10.6081          160.163       NO       
      PART-1-1.1569        0.0180623          22.5006          151.562       NO       
      PART-1-1.1572        0.0180431          12.9129          153.256       NO       
      PART-1-1.1582        0.0110329          18.8344          155.984       NO       
      PART-1-1.1589       0.00763559          18.3678          157.136       NO       
      PART-1-1.1593       0.00319158          10.3935          159.932       NO       
      PART-1-1.1594        0.0029489          15.7291          157.067       NO       
      PART-1-1.1596       0.00402796          17.1715          160.705       NO       
      PART-1-1.1603       0.00328578          17.2702          160.927       NO       
      PART-1-1.1607       0.00227536           15.628          162.024       NO       
      PART-1-1.1609       0.00313073           15.552          156.914       NO       
      PART-1-1.1612         0.014608          12.3077          152.203       NO       
      PART-1-1.1613       0.00727471          11.4578          157.672       NO       
      PART-1-1.1614       0.00281128          10.2748          159.282       NO       
      PART-1-1.1616       0.00215733          12.5455           161.44       NO       
      PART-1-1.1636       0.00462947          9.14634          166.105       NO       
      PART-1-1.1637       0.00254793          12.7132          161.165       NO       
      PART-1-1.1639        0.0622961          9.12373          161.485       NO       
      PART-1-1.1648        0.0128117          12.4148          151.894       NO       
      PART-1-1.1649       0.00536763          16.3544          160.148       NO       
      PART-1-1.1654       0.00747879          7.83047          158.856       NO       
      PART-1-1.1655       0.00493007           13.921          158.388       NO       
      PART-1-1.1739       0.00458595          13.6782          158.456       NO       
      PART-1-1.1742       0.00241361          9.72495           161.22       NO       
      PART-1-1.1743        0.0030538          16.0863          161.996       NO       
      PART-1-1.1760       0.00223678          12.6559          161.516       NO       
      PART-1-1.1762       0.00642319          10.9033          158.591       NO       
      PART-1-1.1830       0.00826356          18.4757          150.484       NO       
      PART-1-1.1839        0.0195058          22.1274            151.6       NO       
      PART-1-1.1941       0.00651345          16.9309          152.858       NO       
      PART-1-1.1942       0.00325339          9.74824          160.247       NO       
      PART-1-1.2075       0.00061288          12.3951          163.811       NO       
      PART-1-1.2077        0.0015803          14.7257          163.335       NO       
      PART-1-1.2081       0.00199412          9.94082          158.321       NO       
      PART-1-1.2083       0.00182497          14.7505          159.432       NO       
      PART-1-1.2091        0.0035984          10.5414          158.973       NO       
      PART-1-1.2093       0.00452685          17.7931          160.242       NO       
      PART-1-1.2094       0.00752449          15.4431           156.07       NO       
      PART-1-1.2100       0.00192548          14.0096          159.577       NO       
      PART-1-1.2106       0.00928949          10.9299          155.103       NO       
      PART-1-1.2107       0.00250255          10.1421          159.054       NO       
      PART-1-1.2108       0.00273678          13.5481          160.081       NO       
      PART-1-1.2109       0.00843086          19.1269          157.368       NO       
      PART-1-1.2113       0.00641961           11.336          158.655       NO       
      PART-1-1.2248        0.0023387          15.2638          162.276       NO       
      PART-1-1.2274       0.00451628          10.9669          156.503       NO       
      PART-1-1.2301        0.0157998          17.1284           153.76       NO       
      PART-1-1.2337        0.0159565          16.1929          154.448       NO       
      PART-1-1.2378        0.0111894           12.469          151.482       NO       
      PART-1-1.2380       0.00267488          11.0059          159.553       NO       
      PART-1-1.2381       0.00697033           10.369          158.083       NO       
      PART-1-1.2387       0.00208697          12.3377          162.051       NO       
      PART-1-1.2390       0.00893181          17.9497          156.897       NO       
      PART-1-1.2391       0.00312844          17.0733          161.216       NO       
      PART-1-1.2397       0.00265373          15.0973          161.981       NO       
      PART-1-1.2400        0.0166535          20.5898          154.651       NO       
      PART-1-1.2402       0.00367027          12.9795          159.411       NO       
      PART-1-1.2404       0.00340379          9.58749           160.36       NO       
      PART-1-1.2422        0.0157618          17.0926          154.069       NO       
      PART-1-1.2517      0.000157562          10.2782          169.873       NO       
      PART-1-1.2518       0.00307543          16.7456           161.73       NO       
      PART-1-1.2521       0.00247649           10.125          160.057       NO       
      PART-1-1.2522       0.00514985          14.7123          157.591       NO       
      PART-1-1.2523       0.00237343           14.149           158.73       NO       
      PART-1-1.2537        0.0141653          21.0006          154.634       NO       
      PART-1-1.2542      0.000650689          8.12758          163.996       NO       
      PART-1-1.2543       0.00358395          10.5306          157.976       NO       
      PART-1-1.2545        0.0105557          12.0649          157.061       NO       
      PART-1-1.2546        0.0155954          11.4372          153.741       NO       
      PART-1-1.2551       0.00394145          14.2541          158.752       NO       
      PART-1-1.2552      0.000324838          7.64717          163.669       NO       
      PART-1-1.2553      0.000602468          13.2799          165.745       NO       
      PART-1-1.2554      0.000161226          10.4067           169.47       NO       
      PART-1-1.2562      0.000251768          9.66531          166.719       NO       
      PART-1-1.2571       0.00225519          10.5756          159.938       NO       
      PART-1-1.2572       0.00275634          16.7962          161.748       NO       
      PART-1-1.2573       0.00194224          14.6303          159.236       NO       
      PART-1-1.2574       0.00262651          13.1701          160.745       NO       
      PART-1-1.2592       0.00417438          10.0552          158.916       NO       
      PART-1-1.2598       0.00511465          14.1634          157.808       NO       
      PART-1-1.2599       0.00327756          16.0785           160.99       NO       
      PART-1-1.2619      0.000772303          12.6466          165.832       NO       
      PART-1-1.2632      1.07682E-17        0.0022377          179.995       NO       
      PART-1-1.2651        0.0176309           17.521          153.466       NO       
      PART-1-1.2694        0.0123442          15.9661          155.702       NO       
      PART-1-1.2724      4.04125E-20      0.000628093          179.998       NO       
      PART-1-1.2727        0.0118934          30.5679           149.77       NO       
      PART-1-1.2782        0.0195636           22.949           152.41       NO       
      PART-1-1.2783       0.00046267          8.55591           164.71       NO       
      PART-1-1.2786        0.0133895          15.5178          155.375       NO       
      PART-1-1.2793       0.00138387          13.8376          160.661       NO       
      PART-1-1.2800       0.00223155          15.2023          162.707       NO       
      PART-1-1.2841        0.0147937          13.1495          154.396       NO       
      PART-1-1.2868       0.00296798          10.2592          159.304       NO       
      PART-1-1.2870       0.00752915          15.8201           155.67       NO       
      PART-1-1.2879        0.0100436          19.5929          156.478       NO       
      PART-1-1.2884        0.0143891          21.3145          153.674       NO       
      PART-1-1.2887       0.00296537          10.3925          158.116       NO       
      PART-1-1.2888        0.0093799          10.4596          155.881       NO       
      PART-1-1.2890        0.0075354          11.5247          158.565       NO       
      PART-1-1.2891       0.00373474          14.4837          158.687       NO       
      PART-1-1.2951      0.000485552          8.22321           164.56       NO       
      PART-1-1.2956       0.00013788          6.98023          167.367       NO       
      PART-1-1.2965         0.015937           17.351          154.022       NO       
      PART-1-1.3014        0.0182094          22.2496          151.636       NO       
      PART-1-1.3015        0.0163691          16.8045          153.565       NO       
      PART-1-1.3020        0.0194589          13.1977          153.024       NO       
      PART-1-1.3027        0.0190144          22.5238          151.244       NO       
      PART-1-1.3087         0.018319          13.3325          154.515       NO       
      PART-1-1.3089        0.0135185           14.715          155.995       NO       
      PART-1-1.3110      0.000492556          12.4298          166.671       NO       
      PART-1-1.3112        0.0198671          15.2565          153.896       NO       
      PART-1-1.3147        0.0130131          12.9838          155.024       NO       
      PART-1-1.3167       0.00226666          10.0313          158.338       NO       
      PART-1-1.3168      0.000523599          8.33485          164.673       NO       
      PART-1-1.3188        0.0198382           16.899          152.793       NO       
      PART-1-1.3191      0.000659667          12.5199          163.557       NO       
      PART-1-1.3193      0.000538764           12.424          166.633       NO       
      PART-1-1.3195      0.000635391          8.53344          163.338       NO       
      PART-1-1.3196       0.00217933          10.0375          158.083       NO       
      PART-1-1.3197        0.0017047          14.8863            163.1       NO       
      PART-1-1.3198         0.016338           30.852          139.149       NO       
      PART-1-1.3199      9.73317E-19       0.00158848          179.998       NO       
      PART-1-1.3201      0.000576609          10.4841          165.115       NO       
      PART-1-1.3216       0.00539043          13.8955          157.989       NO       
      PART-1-1.3225         0.002321          15.8367           161.81       NO       
      PART-1-1.3226       0.00292725          15.7319          157.104       NO       
      PART-1-1.3231       0.00285361          10.5318          158.982       NO       
      PART-1-1.3234       0.00530012          10.7492          158.971       NO       
      PART-1-1.3563      0.000529495          12.6153          166.254       NO       
      PART-1-1.3564      0.000341484          8.04309           162.77       NO       
      PART-1-1.3565        0.0115246          15.7131          156.171       NO       
      PART-1-1.3567      0.000216196          9.24189          167.383       NO       
      PART-1-1.3568       0.00302974           10.933          159.066       NO       
      PART-1-1.3569      0.000207877          10.9949          169.071       NO       
      PART-1-1.3570       0.00374343          17.6264           160.59       NO       
      PART-1-1.3571        0.0126052          11.8818          152.715       NO       
      PART-1-1.3572       0.00360974          13.7448          159.659       NO       
      PART-1-1.3573       0.00873796          18.5235          156.519       NO       
      PART-1-1.3574       0.00025706          10.4945          168.729       NO       
      PART-1-1.3575        0.0158631          20.3425          153.766       NO       
      PART-1-1.3580        0.0168843          13.4576          153.946       NO       
      PART-1-1.3588         0.015303           20.918          154.414       NO       
      PART-1-1.3589      0.000522211          12.8403          166.443       NO       
      PART-1-1.3591       0.00365591          13.5557          159.083       NO       
      PART-1-1.3592      0.000601137          12.8659          166.543       NO       
      PART-1-1.3593      0.000137271          6.66057          167.226       NO       
      PART-1-1.3594      0.000511338          8.72242           164.47       NO       
      PART-1-1.3595       0.00048437          8.28246          162.675       NO       
      PART-1-1.3597      0.000216774          9.15278          167.161       NO       
      PART-1-1.3601        0.0110353           19.525          154.975       NO       
      PART-1-1.3637        0.0138294          16.3716          155.193       NO       
      PART-1-1.3662        0.0180432          17.6864          153.407       NO       
      PART-1-1.3672      4.51986E-15       0.00176569          179.996       NO       
      PART-1-1.3697       0.00199934          14.9478          162.815       NO       
      PART-1-1.3725        0.0135202          16.1306          155.087       NO       
      PART-1-1.3749      0.000218537          9.05101          167.496       NO       
      PART-1-1.3750      0.000519954          8.66286           161.54       NO       
      PART-1-1.3752      0.000222345           10.929          169.009       NO       
      PART-1-1.3753      0.000203153          10.7421          167.063       NO       
      PART-1-1.3754      0.000552216          12.5054          166.356       NO       
      PART-1-1.3755        0.0198927          12.2208          154.092       NO       
      PART-1-1.3756       0.00443759          16.4067          154.981       NO       
      PART-1-1.3757       0.00457372          17.9074          159.892       NO       
      PART-1-1.3759        0.0147226          20.6442          153.429       NO       
      PART-1-1.3773        0.0137913          21.5128          154.571       NO       
      PART-1-1.3774      0.000114589          9.46031            170.3       NO       
      PART-1-1.3780       0.00931139          18.9417           156.96       NO       
      PART-1-1.3782      0.000150828          8.53172          168.159       NO       
      PART-1-1.3785      0.000355675          11.8421          167.493       NO       
      PART-1-1.3787      0.000364398          8.20055          165.312       NO       
      PART-1-1.3790      0.000426163           12.111          167.523       NO       
      PART-1-1.3819      0.000369744          11.3548          167.779       NO       
      PART-1-1.3854       0.00626507          17.7038          158.174       NO       
      PART-1-1.3866       0.00245472          10.7031          160.036       NO       
      PART-1-1.3869       0.00938583          18.2497          156.745       NO       
      PART-1-1.3886        0.0192935          13.5157          152.833       NO       
      PART-1-1.3907        0.0133363          18.5934          136.738       NO       
      PART-1-1.3910      3.57051E-15       0.00187735          179.997       NO       
      PART-1-1.3917      0.000508697          11.9158          167.027       NO       
      PART-1-1.3949        0.0175574          13.2155           154.67       NO       
      PART-1-1.3989       0.00244098          9.70021          160.362       NO       
      PART-1-1.4082       0.00297249          16.7606          161.753       NO       
      PART-1-1.4084       0.00436577          14.3507          158.395       NO       
      PART-1-1.4085         0.010993          11.1479          154.758       NO       
      PART-1-1.4087         0.018419          21.6067          152.861       NO       
      PART-1-1.4095        0.0135885          12.6239          155.854       NO       
      PART-1-1.4097        0.0196898          11.7695          153.159       NO       
      PART-1-1.4101        0.0182691          22.1757          153.042       NO       
      PART-1-1.4102       0.00429713          14.3035          158.414       NO       
      PART-1-1.4103        0.0179956          21.5856          153.022       NO       
      PART-1-1.4129        0.0024071          10.2455          160.005       NO       
      PART-1-1.4164       0.00264765          15.4161          161.793       NO       
      PART-1-1.4206        0.0161925          16.6724          153.808       NO       
      PART-1-1.4210        0.0162286          20.0009          155.007       NO       
      PART-1-1.4213       0.00717393          18.4329          157.367       NO       
      PART-1-1.4281       0.00357647          9.61792          160.279       NO       
      PART-1-1.4294        0.0029572          12.5626          160.386       NO       
      PART-1-1.4361       0.00269726          15.9092          161.892       NO       
      PART-1-1.4362       0.00305998          10.5279          157.477       NO       
      PART-1-1.4365       0.00282305          16.2565          161.092       NO       
      PART-1-1.4366      0.000864774          12.7947          162.616       NO       
      PART-1-1.4368      0.000610733          12.4209          166.923       NO       
      PART-1-1.4383      0.000968099          8.82507          163.546       NO       
      PART-1-1.4384       0.00117977          13.8255          165.085       NO       
      PART-1-1.4387        0.0143288          16.0064          154.759       NO       
      PART-1-1.4388       0.00130861          14.0452          163.992       NO       
      PART-1-1.4390      0.000448959          10.0066          165.956       NO       
      PART-1-1.4403       0.00218572          9.72806          161.936       NO       
      PART-1-1.4406       0.00276489          15.6568          162.254       NO       
      PART-1-1.4407       0.00249637          11.8614          161.416       NO       
      PART-1-1.4417       0.00824637          11.3067          156.771       NO       
      PART-1-1.4420       0.00162668          11.3809          163.157       NO       
      PART-1-1.4458      0.000534481          12.6398          163.998       NO       
      PART-1-1.4459        0.0112903          12.5936          155.743       NO       
      PART-1-1.4462      0.000931215          13.0601          165.262       NO       
      PART-1-1.4463       0.00154068          10.2239          158.002       NO       
      PART-1-1.4464      0.000829577          13.0899            165.6       NO       
      PART-1-1.4480        0.0181066          11.4156          154.939       NO       
      PART-1-1.4483        0.0161894          12.8223          154.355       NO       
      PART-1-1.4486       0.00278272          16.0126          157.151       NO       
      PART-1-1.4488       0.00174348           11.848           162.69       NO       
      PART-1-1.4489        0.0110713          12.6436          151.408       NO       
      PART-1-1.4495       0.00518832          17.1973          159.087       NO       
      PART-1-1.4583        0.0181663          18.0733           153.22       NO       
      PART-1-1.4624      0.000129258          7.43437          164.565       NO       
      PART-1-1.4626      6.19874E-05          9.13996          169.742       NO       
      PART-1-1.4627       0.00010982          9.69279          169.944       NO       
      PART-1-1.4628      8.14087E-05          8.95007          170.935       NO       
      PART-1-1.4642        0.0140959          12.6137          151.649       NO       
      PART-1-1.4646       0.00168173          11.9109          162.457       NO       
      PART-1-1.4647        0.0031918          15.8503          156.669       NO       
      PART-1-1.4649       0.00258539          10.2136          159.683       NO       
      PART-1-1.4685        0.0140414          19.7422          146.981       NO       
      PART-1-1.4740      0.000826728          12.5062          162.871       NO       
      PART-1-1.4742      0.000896897          10.9442          163.738       NO       
      PART-1-1.4743       0.00299744          10.3754          157.973       NO       
      PART-1-1.4744        0.0032508          16.7716          160.395       NO       
      PART-1-1.4786       0.00070875          13.3625          162.936       NO       
      PART-1-1.4788        0.0188119           13.689          153.561       NO       
      PART-1-1.4793      0.000386925          9.48268          166.668       NO       
      PART-1-1.4794       0.00210074           10.698           156.68       NO       
      PART-1-1.4798      0.000930731          13.1727          165.381       NO       
      PART-1-1.4806       0.00302267          16.8763          161.378       NO       
      PART-1-1.4822       0.00642415          10.2574          158.334       NO       
      PART-1-1.4823       0.00315303          17.1622          161.076       NO       
      PART-1-1.4826       0.00489357          16.8028          159.462       NO       
      PART-1-1.4828       0.00632088          10.9825          159.303       NO       
      PART-1-1.4876        0.0199785          12.6345           154.76       NO       
      PART-1-1.4881        0.0120756          10.7774          155.488       NO       
      PART-1-1.4882        0.0147068           20.512          153.222       NO       
      PART-1-1.4883       0.00171136          9.61943          158.765       NO       
      PART-1-1.4884      0.000824859          11.2263          164.112       NO       
      PART-1-1.4885      0.000533769          12.1723          164.311       NO       
      PART-1-1.4886      0.000722441          10.8975          164.178       NO       
      PART-1-1.4887      0.000777043          13.6149          165.888       NO       
      PART-1-1.4891       0.00480397          16.2336          154.664       NO       
      PART-1-1.4892        0.0159382           20.135          154.878       NO       
      PART-1-1.4915      0.000436218          7.87011          164.795       NO       
      PART-1-1.4917      0.000193633          7.52949          166.643       NO       
      PART-1-1.4932        0.0117122          18.5853           156.76       NO       
      PART-1-1.4937       0.00254688          16.2227          162.054       NO       
      PART-1-1.4948       0.00213478          15.8233          162.373       NO       
      PART-1-1.4959       0.00226778          9.78095          159.004       NO       
      PART-1-1.4966         0.002071          10.4117          160.879       NO       
      PART-1-1.5056        0.0195564          20.3074          144.469       NO       
      PART-1-1.5134       0.00561423          16.6478          153.707       NO       
      PART-1-1.5152        0.0196528          17.5769          152.502       NO       
      PART-1-1.5197      0.000925971          12.9832          165.388       NO       
      PART-1-1.5198      0.000503081          12.3391          164.353       NO       
      PART-1-1.5296        0.0163238          17.1532          154.107       NO       
      PART-1-1.5310        0.0139296          12.5615          151.535       NO       
      PART-1-1.5311       0.00317576          15.9139          156.671       NO       
      PART-1-1.5315       0.00819096          18.5952          156.783       NO       
      PART-1-1.5389       0.00115304          13.5286          161.495       NO       
      PART-1-1.5390       0.00155077           12.171          162.345       NO       
      PART-1-1.5392       0.00557989          17.6555          158.688       NO       
      PART-1-1.5394       0.00436707          10.6965          156.122       NO       
      PART-1-1.5397        0.0032549           15.875          160.942       NO       
      PART-1-1.5447       0.00444019          17.7611          159.045       NO       
      PART-1-1.5464       0.00236483          14.1953          158.731       NO       
      PART-1-1.5466        0.0126136          11.0918          154.752       NO       
      PART-1-1.5468        0.0135467          20.1972          153.784       NO       
      PART-1-1.5475       0.00410729           15.453          155.833       NO       
      PART-1-1.5480       0.00948801          11.1606          156.216       NO       
      PART-1-1.5483       0.00327999          16.1907          156.375       NO       
      PART-1-1.5501        0.0165353          17.0559          153.969       NO       
      PART-1-1.5512       0.00297777          16.7338           161.46       NO       
      PART-1-1.5541       0.00016821           7.3154          166.766       NO       
      PART-1-1.5542      0.000302173          7.59225          163.815       NO       
      PART-1-1.5543      0.000192326          10.7669          169.369       NO       
      PART-1-1.5547      0.000305923          9.93516          166.275       NO       
      PART-1-1.5555      0.000365126          11.1877          167.773       NO       
      PART-1-1.5557      0.000431435          7.92782          165.077       NO       
      PART-1-1.5558        0.0120872          15.8727          155.976       NO       
      PART-1-1.5559       0.00305023          10.6308          159.089       NO       
      PART-1-1.5560       0.00538199          14.8565          157.599       NO       
      PART-1-1.5562       0.00378531          17.5556          160.763       NO       
      PART-1-1.5597        0.0149321          21.1961          153.974       NO       
      PART-1-1.5599        0.0150311          21.4816          154.095       NO       
      PART-1-1.5603       0.00285962          8.76242          161.163       NO       
      PART-1-1.5605       0.00221439          14.4178          162.997       NO       
      PART-1-1.5607       0.00459116          15.5368          159.803       NO       
      PART-1-1.5608       0.00112033          11.0541          164.463       NO       
      PART-1-1.5610       0.00867709          12.8357          150.298       NO       
      PART-1-1.5612        0.0148159          11.3336          154.361       NO       
      PART-1-1.5615        0.0112868          12.4715           156.39       NO       
      PART-1-1.5617       0.00373771           14.079          158.805       NO       
      PART-1-1.5623      0.000315765          7.60558          163.909       NO       
      PART-1-1.5629      0.000242243          9.57662          166.752       NO       
      PART-1-1.5631      0.000132503          9.93889          169.962       NO       
      PART-1-1.5632      0.000431201          11.8902          167.525       NO       
      PART-1-1.5634      0.000574628           13.251          165.919       NO       
      PART-1-1.5635      0.000366491          8.14683          165.702       NO       
      PART-1-1.5664        0.0192189          12.8594          153.832       NO       
      PART-1-1.5667       0.00228402          14.0539          158.926       NO       
      PART-1-1.5671         0.018529          12.5423          154.763       NO       
      PART-1-1.5673        0.0122284          11.0384          155.018       NO       
      PART-1-1.5835      0.000592428          12.2067          163.956       NO       
      PART-1-1.5873        0.0115555          16.0079          155.894       NO       
      PART-1-1.5880      0.000800775          12.4495          163.016       NO       
      PART-1-1.5931       0.00265012           12.754           161.07       NO       
      PART-1-1.5933        0.0186328           16.864          153.775       NO       
      PART-1-1.5936        0.0108594          11.2725          156.221       NO       
      PART-1-1.5937        0.0116611          18.9296          155.748       NO       
      PART-1-1.5951        0.0034065          10.6791          157.294       NO       
      PART-1-1.5978       0.00292499          15.7473          162.166       NO       
      PART-1-1.5994        0.0137997          19.4636          155.616       NO       
      PART-1-1.6012       0.00304457          15.6629          161.241       NO       
      PART-1-1.6025      0.000617981          12.1643          166.517       NO       
      PART-1-1.6029      0.000743673          8.30672          163.808       NO       
      PART-1-1.6032        0.0177966          17.5929          153.153       NO       
      PART-1-1.6047       0.00220265          12.4173          161.751       NO       
      PART-1-1.6049       0.00277467          15.7617          157.297       NO       
      PART-1-1.6069      0.000571057          11.7489          166.919       NO       
      PART-1-1.6070      0.000504244          8.89586          163.971       NO       
      PART-1-1.6072      0.000588135          13.1714          166.471       NO       
      PART-1-1.6138        0.0164821          17.2282          154.144       NO       
      PART-1-1.6246         0.016052          20.5447          145.603       NO       
      PART-1-1.6258        0.0128669          16.1432          155.292       NO       
      PART-1-1.6259         0.018288          23.2321          152.545       NO       
      PART-1-1.6261        0.0141239          13.5292          153.415       NO       
      PART-1-1.6286        0.0173001           13.439          153.463       NO       
      PART-1-1.6321        0.0020715          14.2728          159.208       NO       
      PART-1-1.6324       0.00335979          10.7847          157.592       NO       
      PART-1-1.6325       0.00842077          18.7988          157.582       NO       
      PART-1-1.6326        0.0101237          10.9123          154.618       NO       
      PART-1-1.6389         0.013044          16.2656          155.368       NO       
      PART-1-1.6399       0.00314305          16.8696          161.622       NO       
      PART-1-1.6426        0.0196681          17.9962          152.554       NO       
      PART-1-1.6433      0.000999769          8.72815          162.508       NO       
      PART-1-1.6434      0.000444557          12.1199           167.41       NO       
      PART-1-1.6435       0.00032431          9.27122          166.938       NO       
      PART-1-1.6438        0.0178784          20.4362          145.008       NO       
      PART-1-1.6439        0.0148777          21.6895          154.112       NO       
      PART-1-1.6442       0.00388858          10.0975          159.627       NO       
      PART-1-1.6450       0.00667202          11.8988          154.316       NO       
      PART-1-1.6451      0.000725332          10.3053           164.84       NO       
      PART-1-1.6453       0.00430283           17.855          160.157       NO       
      PART-1-1.6454       0.00345243          10.9156          158.906       NO       
      PART-1-1.6494         0.018792          12.5194          153.789       NO       
      PART-1-1.6625       0.00304864          10.7567          158.586       NO       
      PART-1-1.6626       0.00375752           17.831          160.706       NO       
      PART-1-1.6628       0.00587352           15.446           156.99       NO       
      PART-1-1.6629        0.0150582          11.7977          156.499       NO       
      PART-1-1.6630        0.0110246          19.1374          155.147       NO       
      PART-1-1.6638        0.0177922          22.1944          152.931       NO       
      PART-1-1.6645       0.00233514          15.8447          162.118       NO       
      PART-1-1.6646       0.00289129          9.90205          158.844       NO       
      PART-1-1.6647        0.0138517          10.6979          155.768       NO       
      PART-1-1.6648       0.00478157          14.8811          157.452       NO       
      PART-1-1.6650        0.0132703          12.9077          155.989       NO       
      PART-1-1.6653       0.00230082          13.6637          159.109       NO       
      PART-1-1.6690       0.00263928          9.29695          161.617       NO       
      PART-1-1.6692       0.00340455          15.9202          161.952       NO       
      PART-1-1.6694      0.000184507          7.27269          165.941       NO       
      PART-1-1.6699       0.00982216          10.4912          155.708       NO       
      PART-1-1.6702       0.00749133          14.5737          156.004       NO       
      PART-1-1.6706       0.00630489          17.4271          157.944       NO       
      PART-1-1.6711       0.00367392          15.9594          161.638       NO       
      PART-1-1.6713       0.00319489          11.2069          157.693       NO       
      PART-1-1.6715       0.00868563          11.7818          152.441       NO       
      PART-1-1.6718       0.00282218          9.38136          161.833       NO       
      PART-1-1.6722       0.00164686          12.3355          162.572       NO       
      PART-1-1.6728      0.000516334          8.61351          164.488       NO       
      PART-1-1.6744       0.00364611          10.9916           159.01       NO       
      PART-1-1.6747       0.00416764          13.6422           159.35       NO       
      PART-1-1.6847       0.00129747          13.5837          164.333       NO       
      PART-1-1.6874        0.0101203          14.7364          156.599       NO       
      PART-1-1.7010       0.00065579          12.6291          166.178       NO       
      PART-1-1.7066         0.002467          9.88064          160.847       NO       
      PART-1-1.7073       0.00327831          10.3842          158.078       NO       
      PART-1-1.7080        0.0197015          22.2396          151.119       NO       
      PART-1-1.7093        0.0147937          21.4386          152.773       NO       
      PART-1-1.7106       0.00127937          14.0313          163.858       NO       
      PART-1-1.7108       0.00326878          17.1203          160.924       NO       
      PART-1-1.7123      5.00717E-05          8.22193           171.75       NO       
      PART-1-1.7129       0.00883796           17.772          150.804       NO       
      PART-1-1.7134       0.00342835          9.58284          160.718       NO       
      PART-1-1.7136       0.00293084          12.1912          160.594       NO       
      PART-1-1.7144       0.00266013          14.9299          161.986       NO       
      PART-1-1.7176       0.00553431          16.9455          153.596       NO       
      PART-1-1.7228      0.000688067          12.4436          166.728       NO       
      PART-1-1.7301       0.00253585          10.1954          159.877       NO       
      PART-1-1.7303       0.00527785          14.8344          157.466       NO       
      PART-1-1.7309        0.0137299          20.3372          153.631       NO       
      PART-1-1.7321        0.0145513          21.1305          154.439       NO       
      PART-1-1.7323        0.0165643           21.446          153.262       NO       
      PART-1-1.7324       0.00350551          10.4638          158.044       NO       
      PART-1-1.7325         0.010846           12.161          156.956       NO       
      PART-1-1.7326        0.0152595          11.3166          154.046       NO       
      PART-1-1.7328       0.00406946          14.3626          158.554       NO       
      PART-1-1.7344      0.000106762          7.05021          165.254       NO       
      PART-1-1.7345      6.32122E-05          6.53395          168.667       NO       
      PART-1-1.7346       0.00165343          9.75724          158.534       NO       
      PART-1-1.7347      6.90855E-05          7.74011          169.679       NO       
      PART-1-1.7348      0.000145085          10.3228          169.225       NO       
      PART-1-1.7350      0.000710129          13.3872          166.116       NO       
      PART-1-1.7351      0.000603182          8.89652          163.764       NO       
      PART-1-1.7358      0.000669935          10.7761          164.805       NO       
      PART-1-1.7379      0.000548272          7.95951          164.296       NO       
      PART-1-1.7380       0.00241275          10.6361          160.271       NO       
      PART-1-1.7381       0.00291865          10.2209          158.086       NO       
      PART-1-1.7382      0.000729253          10.7757          164.269       NO       
      PART-1-1.7384      0.000460277          11.7299          167.315       NO       
      PART-1-1.7387      0.000179787          10.6029          169.364       NO       
      PART-1-1.7388      4.29257E-05           8.0141           172.04       NO       
      PART-1-1.7389      4.81343E-05           5.7881          169.189       NO       
      PART-1-1.7391      0.000152627          10.5703          169.225       NO       
      PART-1-1.7397      0.000150123          7.28933          165.041       NO       
      PART-1-1.7398       7.3092E-05          7.74137          169.429       NO       
      PART-1-1.7471        0.0157305           16.661           154.04       NO       
      PART-1-1.7505        0.0164511          17.3582          153.838       NO       
      PART-1-1.7745        0.0087242          17.8142          157.366       NO       
      PART-1-1.7746      0.000452391          8.18702          165.038       NO       
      PART-1-1.7747       0.00193274           9.9265          158.635       NO       
      PART-1-1.7748      0.000534937          12.3746          167.139       NO       
      PART-1-1.7751       0.00207236           15.358          162.591       NO       
      PART-1-1.7752      0.000678975           10.641          164.643       NO       
      PART-1-1.7759       0.00210434           9.8652           160.46       NO       
      PART-1-1.7771      0.000806844          12.9095          162.815       NO       
      PART-1-1.7773       0.00160367          9.62275          162.033       NO       
      PART-1-1.7778      0.000623222          12.6824          166.243       NO       
      PART-1-1.7780       0.00263032          15.4718          161.833       NO       
      PART-1-1.7781       0.00520164           16.116          154.402       NO       
      PART-1-1.7783       0.00073912          8.68732          163.011       NO       
      PART-1-1.7786       0.00064504           10.603          164.869       NO       
      PART-1-1.7787       0.00276327          10.3593          157.331       NO       
      PART-1-1.7873        0.0155029          16.8749          154.343       NO       
      PART-1-1.7948       0.00370731          15.0383          156.508       NO       
      PART-1-1.7966        0.0156785          16.3357          154.018       NO       
      PART-1-1.8082        0.0011731          13.3318          164.604       NO       
      PART-1-1.8089       0.00536551          24.0857          159.751       NO       
      PART-1-1.8094        0.0198102          21.0842          143.847       NO       
      PART-1-1.8144         0.018236          21.9418          153.602       NO       
      PART-1-1.8154       0.00175365          14.3521          163.121       NO       
      PART-1-1.8157      0.000551628          8.49796          163.988       NO       
      PART-1-1.8159        0.0113083          15.6048          156.318       NO       
      PART-1-1.8160       0.00131062           8.7583          160.818       NO       
      PART-1-1.8167       0.00218265          9.75255          161.228       NO       
      PART-1-1.8224        0.0025559          15.1444          162.005       NO       
      PART-1-1.8245        0.0192622          17.0947          153.474       NO       
      PART-1-1.8288       0.00122576          9.34264          159.447       NO       
      PART-1-1.8290      0.000527824          8.78969          163.973       NO       
      PART-1-1.8292       0.00103645          8.52618          163.279       NO       
      PART-1-1.8293      0.000848547          12.6367          165.695       NO       
      PART-1-1.8294      0.000617423          13.1699          166.461       NO       
      PART-1-1.8297        0.0194318          17.2134          153.022       NO       
      PART-1-1.8313      0.000637405          8.05415          163.951       NO       
      PART-1-1.8314       0.00354634          10.2872          157.894       NO       
      PART-1-1.8315       0.00316438          11.0729          159.458       NO       
      PART-1-1.8318       0.00094019          11.2441          163.442       NO       
      PART-1-1.8373        0.0146292          15.9151          154.929       NO       
      PART-1-1.8380       0.00124235          9.01551          160.155       NO       
      PART-1-1.8383      0.000392522          11.4062          165.428       NO       
      PART-1-1.8385       0.00257411          16.2194          161.337       NO       
      PART-1-1.8448      0.000541951          12.6367          166.855       NO       
      PART-1-1.8450       0.00106903          8.68957          162.596       NO       
      PART-1-1.8500        0.0199223           20.652          153.003       NO       
      PART-1-1.8545       0.00560143          17.1518          158.719       NO       
      PART-1-1.8550        0.0107039          19.2568          155.696       NO       
      PART-1-1.8551       0.00823052          11.3931          154.002       NO       
      PART-1-1.8552       0.00738006           10.677          158.109       NO       
      PART-1-1.8659       0.00254935          10.6521             160.       NO       
      PART-1-1.8660       0.00314853          16.9231          161.294       NO       
      PART-1-1.8681        0.0196466          13.5915          152.973       NO       
      PART-1-1.8682        0.0033877          13.0318          159.785       NO       
      PART-1-1.8835       0.00118098          13.3422          164.597       NO       
      PART-1-1.8838      0.000853501          11.4738          163.783       NO       
      PART-1-1.8878        0.0027591          9.98605          160.079       NO       
      PART-1-1.8879       0.00313351          14.4809           157.48       NO       
      PART-1-1.8881       0.00346377          16.8246          161.462       NO       
      PART-1-1.8894       0.00317968          10.6493          157.958       NO       
      PART-1-1.8898         0.016486          20.4411          154.561       NO       
      PART-1-1.8899       0.00259434          16.4878          161.363       NO       
      PART-1-1.8900        0.0104175          11.0553          154.431       NO       
      PART-1-1.8902         0.003766          9.92143          159.706       NO       
      PART-1-1.8903       0.00307564          13.8554          159.768       NO       
      PART-1-1.8904       0.00642541          11.0754          159.061       NO       
      PART-1-1.8913       0.00294867          15.5675          161.442       NO       
      PART-1-1.8916        0.0070276          17.0125          152.449       NO       
      PART-1-1.8941      9.24351E-05          6.41028          167.935       NO       
      PART-1-1.8944       0.00278044          10.8577          158.171       NO       
      PART-1-1.8948        0.0170548          17.2305          153.834       NO       
      PART-1-1.8949      5.26321E-05          7.24143          170.306       NO       
      PART-1-1.8951      6.14248E-05          8.84367          171.387       NO       
      PART-1-1.8952      5.49911E-05          6.33812           169.11       NO       
      PART-1-1.8953        0.0190929          16.3597          153.598       NO       
      PART-1-1.8954       0.00229186          16.3164          161.629       NO       
      PART-1-1.8955       0.00192271          10.2593          157.703       NO       
      PART-1-1.8957       0.00399609           16.312          161.153       NO       
      PART-1-1.8958      0.000626319          12.7689          163.557       NO       
      PART-1-1.8959      0.000608809           12.841          166.599       NO       
      PART-1-1.8960       0.00141037          9.06451          161.838       NO       
      PART-1-1.8961       0.00115338          13.6627          164.621       NO       
      PART-1-1.8962        0.0067323          17.9774          157.562       NO       
      PART-1-1.8963        0.0189479          13.4014          153.508       NO       
      PART-1-1.8966       0.00153212          14.2598          163.641       NO       
      PART-1-1.8973       0.00038036          8.25679           165.34       NO       
      PART-1-1.8977       0.00191505          14.9469           163.09       NO       
      PART-1-1.8981       0.00293058          16.6914          161.638       NO       
      PART-1-1.8982      5.62548E-05          5.98857          168.917       NO       
      PART-1-1.8983        0.0038713          10.9664           156.42       NO       
      PART-1-1.8984      0.000126923          10.0072          169.736       NO       
      PART-1-1.8988      8.90153E-05          9.43155          169.033       NO       
      PART-1-1.8989      0.000198742          7.80232           163.94       NO       
      PART-1-1.8991      0.000149797          7.28808           167.13       NO       
      PART-1-1.8992      6.01923E-05          7.34834          169.992       NO       
      PART-1-1.9079      0.000511475           12.499          166.821       NO       
      PART-1-1.9148        0.0197898          22.7835          150.971       NO       
      PART-1-1.9158        0.0175963          17.1905          153.185       NO       
      PART-1-1.9160       0.00265719          16.4066          161.435       NO       
      PART-1-1.9176      0.000637901           11.958          163.884       NO       
      PART-1-1.9178      0.000420868          11.6499           167.52       NO       
      PART-1-1.9181      9.18498E-05          7.06444          165.304       NO       
      PART-1-1.9271        0.0136684          19.4053          156.038       NO       
      PART-1-1.9341        0.0157704          16.6883          154.474       NO       
      PART-1-1.9389        0.0167215          17.3203          153.815       NO       
      PART-1-1.9457      0.000324597          7.85451          166.194       NO       
      PART-1-1.9497       0.00262123          11.5062          159.248       NO       
      PART-1-1.9498       0.00318652          17.5109          160.667       NO       
      PART-1-1.9499       0.00250981          16.7021          157.264       NO       
      PART-1-1.9511       0.00260339          14.2838           162.46       NO       
      PART-1-1.9515       0.00420915          12.5744           158.95       NO       
      PART-1-1.9537       0.00860221          18.5572          157.053       NO       
      PART-1-1.9540       0.00952602          19.7314          156.844       NO       
      PART-1-1.9590        0.0153189          16.6248          154.092       NO       
      PART-1-1.9639         0.013523            21.12            153.6       NO       
      PART-1-1.9641       0.00222573          11.7493           161.96       NO       
      PART-1-1.9643       0.00506108          17.0093          153.995       NO       
      PART-1-1.9644        0.0177382          12.5773          152.644       NO       
      PART-1-1.9651        0.0148724          21.7658          154.473       NO       
      PART-1-1.9652       0.00294615          15.8401          161.104       NO       
      PART-1-1.9654        0.0018103          11.4765          162.695       NO       
      PART-1-1.9656       0.00806878          17.3043          158.136       NO       
      PART-1-1.9657       0.00651225          17.7866          152.376       NO       
      PART-1-1.9674        0.0153965          16.6244          154.663       NO       
      PART-1-1.9681       0.00287744          16.4571          160.998       NO       
      PART-1-1.9687       0.00302499          16.1793          161.713       NO       
      PART-1-1.9712      0.000782698           8.6332          163.117       NO       
      PART-1-1.9713       0.00101149          13.3047          161.947       NO       
      PART-1-1.9750        0.0163429          14.0752           152.66       NO       
      PART-1-1.9841        0.0090628          18.7152          150.086       NO       
      PART-1-1.9842        0.0027692          15.2232          161.538       NO       
      PART-1-1.9857       0.00332674          9.85752          159.677       NO       
      PART-1-1.9859        0.0044496          17.3151          160.323       NO       
      PART-1-1.9875       0.00799136          19.1912          157.754       NO       
      PART-1-1.9876       0.00209612          15.3491          162.312       NO       
      PART-1-1.9878       0.00615134          11.1691          158.036       NO       
      PART-1-1.9882       0.00662354          17.5418          158.379       NO       
      PART-1-1.9918       0.00486889          13.6071           158.67       NO       
      PART-1-1.9923       0.00122354          9.64448          161.963       NO       
      PART-1-1.9989       0.00127444          13.1029          161.291       NO       
      PART-1-1.9990      0.000556362          11.8257          166.978       NO       
     PART-1-1.10050      0.000501862          7.78144          164.802       NO       
     PART-1-1.10053      0.000940249          12.8779          162.316       NO       
     PART-1-1.10120       0.00393742          17.5435          160.309       NO       
     PART-1-1.10222        0.0082462          10.8162          157.223       NO       
     PART-1-1.10225        0.0115765          12.4125          151.854       NO       
     PART-1-1.10353      0.000648401          13.1025          166.393       NO       
     PART-1-1.10358       0.00169493            9.911          158.317       NO       
     PART-1-1.10407      0.000410527          11.8402          165.109       NO       
     PART-1-1.10416      0.000598609          10.7008          165.031       NO       
     PART-1-1.10417       0.00162082          14.6996          163.944       NO       
     PART-1-1.10482        0.0146109          16.7014          154.348       NO       
     PART-1-1.10485        0.0190469          22.7606          151.085       NO       
     PART-1-1.10531       0.00109515          13.3772          164.842       NO       
     PART-1-1.10565          0.00242          15.1581          162.516       NO       
     PART-1-1.10585        0.0193987          17.9275          152.996       NO       
     PART-1-1.10633       0.00229961          12.3642           161.75       NO       
     PART-1-1.10635       0.00343166          17.1917          160.874       NO       
     PART-1-1.10636       0.00277532          10.8806          159.755       NO       
     PART-1-1.10637        0.0101797          18.2503          156.497       NO       
     PART-1-1.10651        0.0131514          19.6151          155.799       NO       
     PART-1-1.10725         0.016913          11.1983          154.716       NO       
     PART-1-1.10783      0.000692745          7.93104           164.39       NO       
     PART-1-1.10786       0.00108111          9.41631           159.23       NO       
     PART-1-1.10787        0.0105394          12.4729          155.646       NO       
     PART-1-1.10788      0.000444981          10.1601          165.969       NO       
     PART-1-1.10797        0.0033723          16.8089          161.093       NO       
     PART-1-1.10798        0.0058062          18.9971          158.505       NO       
     PART-1-1.10799      0.000614922          12.8031          163.644       NO       
     PART-1-1.10800      0.000616476          12.9671          166.054       NO       
     PART-1-1.10802      0.000671891          7.90737          164.239       NO       
     PART-1-1.10804        0.0046434           11.839          157.775       NO       
     PART-1-1.10805       0.00530733          10.8881          156.802       NO       
     PART-1-1.10808       0.00104092          11.2136           163.19       NO       
     PART-1-1.10826        0.0191415          17.2165          152.617       NO       
     PART-1-1.10895       0.00877212          14.8883          157.147       NO       
     PART-1-1.10897      0.000903423          13.0965          165.112       NO       
     PART-1-1.11003       0.00357903          13.3225          159.663       NO       
     PART-1-1.11006       0.00357808          15.6533          156.293       NO       
     PART-1-1.11007        0.0176149          12.5333          152.013       NO       
     PART-1-1.11021        0.0147023          21.4272          154.463       NO       
     PART-1-1.11022       0.00350849          10.4229          158.847       NO       
     PART-1-1.11024        0.0116845          19.3678          155.752       NO       
     PART-1-1.11025       0.00275463          12.8954          160.632       NO       
     PART-1-1.11084       0.00146646          8.85613          160.598       NO       
     PART-1-1.11096        0.0167978          16.4597          154.029       NO       
     PART-1-1.11106        0.0013422            8.923          162.272       NO       
     PART-1-1.11111      0.000587107          10.4616          165.224       NO       
     PART-1-1.11115       0.00919421          15.2946          155.644       NO       
     PART-1-1.11152       0.00362131          13.0424          159.558       NO       
     PART-1-1.11191      0.000503482          11.5356           167.27       NO       
     PART-1-1.11231       0.00257292          10.1122          159.936       NO       
     PART-1-1.11232          0.01887           11.759          154.967       NO       
     PART-1-1.11245        0.0198181          17.5549          153.111       NO       
     PART-1-1.11258       0.00529927          17.0358          159.092       NO       
     PART-1-1.11381        0.0163317          16.7258          154.273       NO       
     PART-1-1.11397       0.00239891          14.3203          158.634       NO       
     PART-1-1.11398       0.00431881          18.1785          160.131       NO       
     PART-1-1.11399       0.00616294          15.3865          156.971       NO       
     PART-1-1.11403        0.0177669          11.9907          155.831       NO       
     PART-1-1.11413        0.0115155          12.7017          156.269       NO       
     PART-1-1.11416        0.0126412          10.8393          155.612       NO       
     PART-1-1.11417        0.0153705          21.6838          153.711       NO       
     PART-1-1.11419       0.00395556          14.3456          158.315       NO       
     PART-1-1.11462        0.0158228          16.7058           154.46       NO       
     PART-1-1.11515       0.00674655          10.3286          157.372       NO       
     PART-1-1.11516        0.0148492          13.7364          148.971       NO       
     PART-1-1.11594      6.25842E-05          5.97053          168.854       NO       
     PART-1-1.11623       0.00231571          12.5057          161.059       NO       
     PART-1-1.11624        0.0180119          12.5563          152.201       NO       
     PART-1-1.11625       0.00359792          15.5556          156.311       NO       
     PART-1-1.11626       0.00196094          14.8719          162.815       NO       
     PART-1-1.11627      0.000460807          8.48685          162.232       NO       
     PART-1-1.11630       0.00276889          15.9753          157.211       NO       
     PART-1-1.11696        0.0031272          16.6067          156.376       NO       
[...]
     PART-1-1.63220       0.00170826           12.548          162.539       NO       
     PART-1-1.63224       0.00282147          14.8882          162.867       NO       
     PART-1-1.63225       0.00603424          17.4841          159.205       NO       
     PART-1-1.63233       0.00215616          8.72167          163.125       NO       
     PART-1-1.63238        0.0045439          10.3915          160.804       NO       
     PART-1-1.63240       0.00911158          18.0424          157.327       NO       
     PART-1-1.63243       0.00201646          8.63683          162.791       NO       
     PART-1-1.63244       0.00261167          14.9049          163.171       NO       
     PART-1-1.63251        0.0058323          15.6122           154.15       NO       
     PART-1-1.63259       0.00785205          14.6705          155.401       NO       
     PART-1-1.63280        0.0027769          16.2767          161.259       NO       
     PART-1-1.63363         0.019049          17.0131          153.595       NO       
     PART-1-1.63383       0.00357327          9.83835          159.608       NO       
     PART-1-1.63386       0.00585475          16.3046          153.748       NO       
     PART-1-1.63387        0.0183631          21.2514          153.708       NO       
     PART-1-1.63411        0.0024222          15.2566            158.1       NO       
     PART-1-1.63412       0.00633911          17.5582          158.157       NO       
     PART-1-1.63413       0.00314887          17.1276          161.215       NO       
     PART-1-1.63420        0.0103618          11.8986          152.812       NO       
     PART-1-1.63424       0.00838775          10.7856          157.598       NO       
     PART-1-1.63429       0.00217335           15.629          162.157       NO       
     PART-1-1.63433       0.00256364          10.7821          159.638       NO       
     PART-1-1.63435        0.0012848          13.7606           164.23       NO       
     PART-1-1.63463       0.00311351          16.1411           160.98       NO       
     PART-1-1.63465        0.0156319          12.8791          154.478       NO       
     PART-1-1.63470        0.0146376          20.0711          154.769       NO       
     PART-1-1.63481       0.00296667          15.4182          157.188       NO       
     PART-1-1.63486        0.0136393          12.2882          152.459       NO       
     PART-1-1.63487        0.0097712          19.3688          155.663       NO       
     PART-1-1.63490       0.00289898          12.9702          160.499       NO       
     PART-1-1.63522       0.00298924           10.098          159.642       NO       
     PART-1-1.63525       0.00424994          16.1524          155.284       NO       
     PART-1-1.63531        0.0107761          12.2881          155.733       NO       
     PART-1-1.63550       0.00358099          13.2102          159.884       NO       
     PART-1-1.63560       0.00375337          17.1326          160.808       NO       
     PART-1-1.63593      0.000187538           7.1108          167.497       NO       
     PART-1-1.63607        0.0198395          17.4877          152.894       NO       
     PART-1-1.63651      0.000475835           8.3577          164.871       NO       
     PART-1-1.63658       0.00172183          14.6662          163.294       NO       
     PART-1-1.63677      3.42345E-05          5.67791          170.335       NO       
     PART-1-1.63688      6.45977E-05          9.29991          170.597       NO       
     PART-1-1.63690      2.77204E-05          7.83784          172.443       NO       
     PART-1-1.63692      3.04848E-05          5.74923           169.41       NO       
     PART-1-1.63697       0.00031251          7.69059          166.327       NO       
     PART-1-1.63699      0.000368133          11.3593          168.118       NO       
     PART-1-1.63703        0.0172294           21.456          153.501       NO       
     PART-1-1.63704      3.82657E-05          7.86645           172.31       NO       
     PART-1-1.63705         0.003308          10.0269          159.032       NO       
     PART-1-1.63707       0.00376064          15.1643          156.366       NO       
     PART-1-1.63709      2.14048E-05          7.49146          171.869       NO       
     PART-1-1.63710       0.00264453          15.8408          161.691       NO       
     PART-1-1.63715       0.00667455           14.718          156.375       NO       
     PART-1-1.63719        0.0110792          11.8863          156.931       NO       
     PART-1-1.63720       0.00360177          17.1252          160.106       NO       
     PART-1-1.63732       0.00390296          15.7939          155.894       NO       
     PART-1-1.63741       0.00244834            15.85          162.675       NO       
     PART-1-1.63742      0.000425088          11.8305          167.196       NO       
     PART-1-1.63743       0.00403842          13.9167          158.661       NO       
     PART-1-1.63747       0.00247702          14.3439          158.443       NO       
     PART-1-1.63749        0.0179068           12.804          153.965       NO       
     PART-1-1.63750      0.000577716          13.1094          166.086       NO       
     PART-1-1.63751      0.000126016          9.50993          168.497       NO       
     PART-1-1.63753      0.000129998          9.79754          170.311       NO       
     PART-1-1.63755      1.85003E-05          7.10755          173.296       NO       
     PART-1-1.63756       3.5109E-05          7.06626           170.58       NO       
     PART-1-1.63759      0.000239009          9.38276           166.89       NO       
     PART-1-1.63762      1.77899E-05          7.11463          172.198       NO       
     PART-1-1.63764      1.68024E-05          5.12077          171.195       NO       
     PART-1-1.63768      3.40169E-05          5.89585           168.07       NO       
     PART-1-1.63773      5.37669E-05          6.21835          168.702       NO       
     PART-1-1.63818       0.00215626          8.98731          162.166       NO       
     PART-1-1.63938      0.000132725          9.81535          168.336       NO       
     PART-1-1.63978        0.0134058          20.8009          153.714       NO       
     PART-1-1.64036      0.000588212          8.08821          164.024       NO       
     PART-1-1.64053       0.00291132          16.5934          161.592       NO       
     PART-1-1.64055       0.00049415          11.9319          167.093       NO       
     PART-1-1.64094       0.00235747          12.3172          161.461       NO       
     PART-1-1.64100        0.0150983          21.6369          154.357       NO       
     PART-1-1.64121        0.0030578          16.3629          161.689       NO       
     PART-1-1.64122        0.0130569          21.3486          153.686       NO       
     PART-1-1.64126       0.00244343          10.1713          160.871       NO       
     PART-1-1.64127        0.0169336          12.6552          152.037       NO       
     PART-1-1.64129       0.00410643          16.2055          155.392       NO       
     PART-1-1.64131       0.00212748          9.92683          161.958       NO       
     PART-1-1.64134       0.00289036          12.6149          160.703       NO       
     PART-1-1.64142        0.0194496          13.1079          150.962       NO       
     PART-1-1.64180        0.0153424          16.1537          154.737       NO       
     PART-1-1.64302       0.00836357          18.6256          156.541       NO       
     PART-1-1.64311        0.0134592           20.228          154.669       NO       
     PART-1-1.64314       0.00218559          10.2379           160.36       NO       
     PART-1-1.64316       0.00995199          11.4151          154.223       NO       
     PART-1-1.64319       0.00324554          13.5645          159.773       NO       
     PART-1-1.64324       0.00149607          14.1001          160.244       NO       
     PART-1-1.64326       0.00269161          16.4877          162.039       NO       
     PART-1-1.64327      0.000559957          9.82008          165.501       NO       
     PART-1-1.64328      0.000540069          11.7358          166.942       NO       
     PART-1-1.64329       0.00313211          11.0104          158.811       NO       
     PART-1-1.64338         0.017359          13.4269          152.441       NO       
     PART-1-1.64346       0.00136825          9.47814          159.218       NO       
     PART-1-1.64347      0.000464157          12.3376          166.912       NO       
     PART-1-1.64363       0.00467671          17.3381          154.213       NO       
     PART-1-1.64366        0.0194688          13.9131          148.798       NO       
     PART-1-1.64407       0.00017382          7.47885          165.854       NO       
     PART-1-1.64491       0.00899524          15.6452          154.473       NO       
     PART-1-1.64552       0.00283176          10.1582          160.558       NO       
     PART-1-1.64829        0.0199113          21.6431          148.948       NO       
     PART-1-1.65565       0.00145524          17.6389          143.577       NO       
     PART-1-1.65568        0.0014852          18.5509          135.982       NO       
     PART-1-1.65609         0.002755          20.2175          138.894       NO       
     PART-1-1.65610       0.00635863          29.7468          141.893       NO       
     PART-1-1.66165       0.00574487          38.2134          150.995       NO       
     PART-1-1.66168        0.0185415          41.9016          134.019       NO       
     PART-1-1.66194       0.00144581          19.0543          164.892       NO       
     PART-1-1.66239        0.0144546          24.0978          133.439       NO       
     PART-1-1.66240        0.0160573          22.6122          131.119       NO       
     PART-1-1.66244      7.44008E-05          5.68041          164.316       NO       
     PART-1-1.66245      0.000834869          10.4427          150.233       NO       
     PART-1-1.66246      0.000199828          7.62376          147.177       NO       
     PART-1-1.66299        0.0168428          38.3235          140.073       NO       
     PART-1-1.67256       0.00422097          13.5062          160.604       NO       
     PART-1-1.70202        0.0182797           29.176          145.899       NO       
     PART-1-1.70882        0.0150884          20.5399          145.768       NO       
     PART-1-1.71039        0.0194388           24.885          152.892       NO       
     PART-1-1.71051        0.0102334          27.9394           153.05       NO       
     PART-1-1.71053        0.0133294          21.6918          154.114       NO       
     PART-1-1.71065        0.0194388           24.885          152.892       NO       
     PART-1-1.71083        0.0194388           24.885          152.892       NO       
     PART-1-1.71789         0.014916          23.5961          149.759       NO       
     PART-1-1.71836        0.0194408          24.8857          152.891       NO       
     PART-1-1.71841         0.013279          19.1053          150.229       NO       
     PART-1-1.71979       0.00613031          26.3362          148.042       NO       
     PART-1-1.72139        0.0194373          24.8852          152.893       NO       
     PART-1-1.72141       0.00150686          22.0042          163.267       NO       
     PART-1-1.72181       0.00528017          27.6496          158.219       NO       
     PART-1-1.74725       0.00342181          11.9999          139.837       NO       
     PART-1-1.74984        0.0100641           18.225          146.822       NO       
     PART-1-1.76432        0.0118106          25.6602          152.426       NO       
     PART-1-1.76474        0.0056516          24.8057          159.023       NO       
     PART-1-1.77789       0.00191957          9.29363          155.629       NO       
     PART-1-1.77832      0.000627991          13.5072          165.946       NO       
     PART-1-1.77841      0.000847077          9.65439          157.369       NO       
     PART-1-1.77852       0.00106884          11.1753          155.255       NO       
     PART-1-1.77856       0.00305155          17.4777          152.038       NO       
     PART-1-1.77864      3.45447E-05          2.62855          172.751       NO       
     PART-1-1.80758        0.0116945          29.9561          155.414       NO       
     PART-1-1.80785        0.0102333          27.9395           153.05       NO       
     PART-1-1.80807        0.0194409          24.8857          152.891       NO       
     PART-1-1.80847        0.0194371          24.8851          152.893       NO       
     PART-1-1.80856         0.019824          29.8135          145.571       NO       
     PART-1-1.80868        0.0116264          32.1276          149.753       NO       
     PART-1-1.80877        0.0194377          24.8852          152.893       NO       
     PART-1-1.80890        0.0194373          24.8852          152.893       NO       
     PART-1-1.80932        0.0116266          32.1277          149.753       NO       
     PART-1-1.80934       0.00528017          27.6496          158.219       NO       
     PART-1-1.81012        0.0194373          24.8852          152.893       NO       
     PART-1-1.82158        0.0615608          9.13322          155.059       NO       
     PART-1-1.82294         0.008579          27.0362          155.004       NO       
     PART-1-1.82863        0.0615762          9.13331          155.058       NO       
     PART-1-1.83205        0.0615603          9.13325          155.058       NO       
     PART-1-1.83278        0.0615695          9.15595          154.979       NO       
     PART-1-1.83747        0.0194402          24.8859          152.892       NO       
     PART-1-1.83805        0.0116266          32.1277          149.753       NO       
     PART-1-1.83850        0.0194374          24.8853          152.893       NO       
     PART-1-1.83895        0.0102795          16.5737          157.153       NO       
     PART-1-1.86353        0.0159001          20.6139          152.749       NO       
     PART-1-1.86478       0.00979043          16.6442          157.153       NO       
     PART-1-1.86505       0.00108715          11.1763          157.369       NO       
     PART-1-1.86508       0.00223783          18.0304           160.48       NO       
     PART-1-1.86515       0.00316811          17.2396          151.998       NO       
     PART-1-1.86655        0.0048068          21.4475          148.732       NO       
     PART-1-1.86663        0.0143433          18.0336          153.664       NO       
     PART-1-1.87059       0.00150697          22.0049          163.266       NO       
     PART-1-1.87149        0.0161338          20.5965          145.504       NO       
     PART-1-1.87174        0.0133294          21.6918          154.114       NO       
     PART-1-1.87232         0.018523          20.8942          151.862       NO       
     PART-1-1.87321        0.0116264          32.1277          149.753       NO       
     PART-1-1.87327        0.0136571          31.6308          151.803       NO       
     PART-1-1.87505       0.00150712           22.005          163.266       NO       
     PART-1-1.87592        0.0116939          29.9559          155.415       NO       
     PART-1-1.87612        0.0194407           24.886          152.891       NO       
     PART-1-1.87683        0.0116936          29.9557          155.415       NO       
     PART-1-1.87803        0.0185237          20.8944          151.862       NO       
     PART-1-1.87827       0.00613034          26.3362          148.042       NO       
     PART-1-1.87828        0.0133278          21.6911          154.115       NO       
     PART-1-1.87892        0.0015071           22.005          163.266       NO       
     PART-1-1.88023         0.061569          9.13212          155.059       NO       
     PART-1-1.88634        0.0615664          9.15648          154.977       NO       
  
  
 --------------------------------------------------------------------------------
 Elements with small volume
  
      Element       Adjusted nodes 
 ------------------ -------------- 
      PART-1-1.2630       NO       
      PART-1-1.2639       NO       
      PART-1-1.2728       NO       
      PART-1-1.2730       NO       
     PART-1-1.22855       NO       
     PART-1-1.23381       NO       
     PART-1-1.25311       NO       
  
  *Step, name=Step-1, nlgeom=NO, perturbation
  *output, field, variable=PRESELECT
  *Step, name=Step-1, nlgeom=NO, perturbation

 ***ERROR: NODE SET ASSEMBLY_BOTTOM_SET_PIN HAS NOT BEEN DEFINED

 ***ERROR: NODE SET ASSEMBLY_BOTTOM_SET_PIN HAS NOT BEEN DEFINED

 ***ERROR: NODE SET ASSEMBLY_TOP_SET_PIN HAS NOT BEEN DEFINED

 ***ERROR: NODE SET ASSEMBLY_TOP_SET_PIN HAS NOT BEEN DEFINED

 ***ERROR: NODE SET ASSEMBLY_TOP_SET_PIN HAS NOT BEEN DEFINED

 ***ERROR: NODE SET ASSEMBLY_TOP_SET_PIN HAS NOT BEEN DEFINED
  *Step, name=Step-1, nlgeom=NO, perturbation
  *buckle
  *boundary, op=NEW, loadcase=1
  *boundary, op=NEW, loadcase=2
  *boundary, op=NEW, loadcase=1
  *boundary, op=NEW, loadcase=2
  *dsload

 ***ERROR: THE SURFACE ASSEMBLY_TOP_SURFACE HAS NOT BEEN LOCATED
 LINE IMAGE: ASSEMBLY_TOP_SURFACE, P, 1.
  *output, field, variable=PRESELECT
  *endstep
  *Step, name=Step-1, nlgeom=NO, perturbation
  *buckle
  *buckle
  *boundary, op=NEW, loadcase=1

 ***ERROR: A BOUNDARY CONDITION HAS BEEN SPECIFIED ON NODE SET 
           ASSEMBLY_BOTTOM_SET_PIN BUT THIS NODE SET IS NOT ACTIVE IN THE MODEL
  *boundary, op=NEW, loadcase=2

 ***ERROR: A BOUNDARY CONDITION HAS BEEN SPECIFIED ON NODE SET 
           ASSEMBLY_BOTTOM_SET_PIN BUT THIS NODE SET IS NOT ACTIVE IN THE MODEL
  *boundary, op=NEW, loadcase=1

 ***ERROR: A BOUNDARY CONDITION HAS BEEN SPECIFIED ON NODE SET 
           ASSEMBLY_TOP_SET_PIN BUT THIS NODE SET IS NOT ACTIVE IN THE MODEL

 ***ERROR: A BOUNDARY CONDITION HAS BEEN SPECIFIED ON NODE SET 
           ASSEMBLY_TOP_SET_PIN BUT THIS NODE SET IS NOT ACTIVE IN THE MODEL
  *boundary, op=NEW, loadcase=2

 ***ERROR: A BOUNDARY CONDITION HAS BEEN SPECIFIED ON NODE SET 
           ASSEMBLY_TOP_SET_PIN BUT THIS NODE SET IS NOT ACTIVE IN THE MODEL

 ***ERROR: A BOUNDARY CONDITION HAS BEEN SPECIFIED ON NODE SET 
           ASSEMBLY_TOP_SET_PIN BUT THIS NODE SET IS NOT ACTIVE IN THE MODEL
  *endstep

 ***ERROR: NODE SET ASSEMBLY_BOTTOM_SET_PIN HAS NOT BEEN DEFINED

 ***ERROR: NODE SET ASSEMBLY_BOTTOM_SET_PIN HAS NOT BEEN DEFINED

 ***ERROR: NODE SET ASSEMBLY_TOP_SET_PIN HAS NOT BEEN DEFINED

 ***ERROR: NODE SET ASSEMBLY_TOP_SET_PIN HAS NOT BEEN DEFINED

 ***ERROR: NODE SET ASSEMBLY_TOP_SET_PIN HAS NOT BEEN DEFINED

 ***ERROR: NODE SET ASSEMBLY_TOP_SET_PIN HAS NOT BEEN DEFINED



                            P R O B L E M   S I Z E


          NUMBER OF ELEMENTS IS                                 88657
          NUMBER OF ELEMENTS DEFINED BY THE USER AND *TIE       88655
          NUMBER OF NODES IS                                    37954
          NUMBER OF NODES DEFINED BY THE USER                   37954
          TOTAL NUMBER OF VARIABLES IN THE MODEL               113868
          (DEGREES OF FREEDOM PLUS MAX NO. OF ANY LAGRANGE MULTIPLIER
           VARIABLES. INCLUDE *PRINT,SOLVE=YES TO GET THE ACTUAL NUMBER.)





          THE PROGRAM HAS DISCOVERED    41 FATAL ERRORS

               ** EXECUTION IS TERMINATED **

 ***ERROR: Failed to locate set "ASSEMBLY_TOP_SET_PIN".



                              END OF USER INPUT PROCESSING



     JOB TIME SUMMARY
       USER TIME (SEC)      =   3.3000    
       SYSTEM TIME (SEC)    =   1.1000    
       TOTAL CPU TIME (SEC) =   4.4000    
       WALLCLOCK TIME (SEC) =          5
