1

   Abaqus 3DEXPERIENCE R2019x                                  Date 02-May-2020   Time 00:15:26
   For use by TEXAS A_M UNIVERSITY SYSTEM under license from Dassault Systemes or its subsidiary.



                         The Abaqus Software is a product of:

                           Dassault Systemes SIMULIA Corp.
                           1301 Atwood Avenue, Suite 101W
                              Johnston, RI 02919, USA
 


                   The Abaqus Software is available only under license
                   from Dassault Systemes or its subsidiary and may be
                   used or reproduced only in accordance with the terms
                   of such license.
 
                          On machine AERO-MJ09CBE4 
                          you are authorized to run
                          Abaqus/Standard until 11-Jul-2021

                          Your site id is: 200000000002185 


 
                    For assistance or any other information you may
                    obtain contact information for your local office
                    from the world wide web at:

                      http://www.3ds.com/products/simulia/locations/

 
                * * * * * * * * * * * * * * * * * * * * * * * * * * * * * * 
                *                                                         * 
                *                   *****************                     * 
                *                   *  N O T I C E  *                     * 
                *                   *****************                     * 
                *                                                         * 
                *                                                         * 
                *               Abaqus 3DEXPERIENCE R2019x                * 
                *                                                         * 
                *          BUILD ID: 2018_09_24-13.41.51 157541           * 
                *                                                         * 
                *                                                         * 
                *  Please make sure you are using                         * 
                *  release 3DEXPERIENCE R2019x manuals                    * 
                *  plus the notes accompanying this release.              * 
                *                                                         * 
                *                                                         * 
                *                                                         * 
                *                                                         * 
                *                                                         * 
                *   This program may not be used for commercial purposes  * 
                *           without payment of a commercial fee.          * 
                *                                                         * 
                * * * * * * * * * * * * * * * * * * * * * * * * * * * * * * 


 



     PROCESSING PART, INSTANCE, AND ASSEMBLY INFORMATION
   *******************************************************


 ***ERROR: in keyword *RIGIDBODY, file "Buckling_job_3_2.inp", line 49986: 
           Unknown assembly set TOP_SET_PIN
 ***NOTE: DUE TO AN INPUT ERROR THE ANALYSIS PRE-PROCESSOR HAS BEEN UNABLE TO 
          INTERPRET SOME DATA.  SUBSEQUENT ERRORS MAY BE CAUSED BY THIS OMISSION

 ***ERROR: in keyword *RIGIDBODY, file "Buckling_job_3_2.inp", line 49988: 
           Unknown assembly set BOTTOM_SET_PIN

 ***ERROR: in keyword *BOUNDARY, file "Buckling_job_3_2.inp", line 50010: 
           Unknown assembly node set BOTTOM_SET_PIN

 ***ERROR: in keyword *BOUNDARY, file "Buckling_job_3_2.inp", line 50012: 
           Unknown assembly node set BOTTOM_SET_PIN

 ***ERROR: in keyword *BOUNDARY, file "Buckling_job_3_2.inp", line 50015: 
           Unknown assembly node set TOP_SET_PIN

 ***ERROR: in keyword *BOUNDARY, file "Buckling_job_3_2.inp", line 50015: 
           Unknown assembly node set TOP_SET_PIN

 ***ERROR: in keyword *BOUNDARY, file "Buckling_job_3_2.inp", line 50018: 
           Unknown assembly node set TOP_SET_PIN

 ***ERROR: in keyword *BOUNDARY, file "Buckling_job_3_2.inp", line 50018: 
           Unknown assembly node set TOP_SET_PIN

     END PROCESSING PART, INSTANCE, AND ASSEMBLY INFORMATION
   ***********************************************************




     OPTIONS BEING PROCESSED
   ***************************


  *Heading
  *Node
  *Element, type=C3D4
  *Nset, nset=ASSEMBLY_PART-1-1_FIBRE_SET3
  *Elset, elset=ASSEMBLY_PART-1-1_FIBRE_SET3
  *Node
  *Nset, nset=ASSEMBLY__PICKEDSET19
  *Nset, nset=ASSEMBLY__PICKEDSET21

 ***WARNING: BUCKLE OPTION IS NOT SUPPORTED FOR ELEMENT LOOP PARALLELIZATION. 
             IF YOU HAVE SPECIFIED ELEMENT LOOP PARALLELIZATION, IT WILL BE 
             TURNED OFF FOR THIS ANALYSIS.
 LINE IMAGE: *buckle
  *material, name=FIBRE_MATERIAL
  *elastic
  *material, name=MATRIX_MATERIAL
  *elastic
  *solidsection, elset=ASSEMBLY_PART-1-1_FIBRE_SET3, material=FIBRE_MATERIAL
  *solidsection, elset=ASSEMBLY_PART-1-1_FIBRE_SET3, material=FIBRE_MATERIAL
  *rigidbody, refnode=ASSEMBLY__PICKEDSET19, pinnset=ASSEMBLY_TOP_SET_PIN
  *rigidbody, refnode=ASSEMBLY__PICKEDSET21, pinnset=ASSEMBLY_BOTTOM_SET_PIN
  *rigidbody, refnode=ASSEMBLY__PICKEDSET19, pinnset=ASSEMBLY_TOP_SET_PIN
  *rigidbody, refnode=ASSEMBLY__PICKEDSET21, pinnset=ASSEMBLY_BOTTOM_SET_PIN
  *rigidbody, refnode=ASSEMBLY__PICKEDSET19, pinnset=ASSEMBLY_TOP_SET_PIN
  *rigidbody, refnode=ASSEMBLY__PICKEDSET21, pinnset=ASSEMBLY_BOTTOM_SET_PIN
  *rigidbody, refnode=ASSEMBLY__PICKEDSET19, pinnset=ASSEMBLY_TOP_SET_PIN

 ***ERROR: NODE SET ASSEMBLY_TOP_SET_PIN HAS NOT BEEN DEFINED
  *rigidbody, refnode=ASSEMBLY__PICKEDSET21, pinnset=ASSEMBLY_BOTTOM_SET_PIN

 ***ERROR: NODE SET ASSEMBLY_BOTTOM_SET_PIN HAS NOT BEEN DEFINED
  *rigidbody, refnode=ASSEMBLY__PICKEDSET19, pinnset=ASSEMBLY_TOP_SET_PIN

 ***ERROR: NODE SET ASSEMBLY_TOP_SET_PIN HAS NOT BEEN DEFINED

 ***ERROR: UNABLE TO LOCATE NODE SET ASSEMBLY_TOP_SET_PIN. THE NODE SET MUST 
           HAVE BEEN PREVIOUSLY DEFINED. NODES IN THIS NODE SET WILL NOT BE 
           PART OF RIGID BODY
 LINE IMAGE: *rigidbody, refnode=ASSEMBLY__PICKEDSET19, 
             pinnset=ASSEMBLY_TOP_SET_PIN
  *rigidbody, refnode=ASSEMBLY__PICKEDSET21, pinnset=ASSEMBLY_BOTTOM_SET_PIN

 ***ERROR: NODE SET ASSEMBLY_BOTTOM_SET_PIN HAS NOT BEEN DEFINED

 ***ERROR: UNABLE TO LOCATE NODE SET ASSEMBLY_BOTTOM_SET_PIN. THE NODE SET MUST 
           HAVE BEEN PREVIOUSLY DEFINED. NODES IN THIS NODE SET WILL NOT BE 
           PART OF RIGID BODY
 LINE IMAGE: *rigidbody, refnode=ASSEMBLY__PICKEDSET21, 
             pinnset=ASSEMBLY_BOTTOM_SET_PIN

 ***ERROR: SURFACE DEFINITION ASSEMBLY_TOP_SURFACE NOT FOUND.
  *rigidbody, refnode=ASSEMBLY__PICKEDSET19, pinnset=ASSEMBLY_TOP_SET_PIN
  *rigidbody, refnode=ASSEMBLY__PICKEDSET21, pinnset=ASSEMBLY_BOTTOM_SET_PIN
  *rigidbody, refnode=ASSEMBLY__PICKEDSET19, pinnset=ASSEMBLY_TOP_SET_PIN

 ***ERROR: NODE SET ASSEMBLY_TOP_SET_PIN HAS NOT BEEN DEFINED

 ***ERROR: UNABLE TO LOCATE NODE SET ASSEMBLY_TOP_SET_PIN. THE NODE SET MUST 
           HAVE BEEN PREVIOUSLY DEFINED. NODES IN THIS NODE SET WILL NOT BE 
           PART OF RIGID BODY
 LINE IMAGE: *rigidbody, refnode=ASSEMBLY__PICKEDSET19, 
             pinnset=ASSEMBLY_TOP_SET_PIN
  *rigidbody, refnode=ASSEMBLY__PICKEDSET21, pinnset=ASSEMBLY_BOTTOM_SET_PIN

 ***ERROR: NODE SET ASSEMBLY_BOTTOM_SET_PIN HAS NOT BEEN DEFINED

 ***ERROR: UNABLE TO LOCATE NODE SET ASSEMBLY_BOTTOM_SET_PIN. THE NODE SET MUST 
           HAVE BEEN PREVIOUSLY DEFINED. NODES IN THIS NODE SET WILL NOT BE 
           PART OF RIGID BODY
 LINE IMAGE: *rigidbody, refnode=ASSEMBLY__PICKEDSET21, 
             pinnset=ASSEMBLY_BOTTOM_SET_PIN
  *boundary, op=NEW, loadcase=1
  *boundary, op=NEW, loadcase=2
  *boundary, op=NEW, loadcase=1
  *boundary, op=NEW, loadcase=2
  *boundary, op=NEW, loadcase=1
  *boundary, op=NEW, loadcase=2
  *boundary, op=NEW, loadcase=1
  *boundary, op=NEW, loadcase=2
  *rigidbody, refnode=ASSEMBLY__PICKEDSET19, pinnset=ASSEMBLY_TOP_SET_PIN
  *rigidbody, refnode=ASSEMBLY__PICKEDSET21, pinnset=ASSEMBLY_BOTTOM_SET_PIN
  *output, field, variable=PRESELECT
  *output, field, variable=PRESELECT
  *output, field, variable=PRESELECT

 ***ERROR: NODE SET ASSEMBLY_TOP_SET_PIN HAS NOT BEEN DEFINED

 ***ERROR: NODE SET ASSEMBLY_BOTTOM_SET_PIN HAS NOT BEEN DEFINED
  
                               E L E M E N T   Q U A L I T Y  C H E C K S        
  
  
 ***NOTES: DISTORTED ISOPARAMETRIC ELEMENTS: ANGLE BETWEEN ISOPARAMETRIC LINES 
           IS LESS THAN 45 DEGREES OR GREATER THAN 135 DEGREES.
  
           TETRAHEDRAL QUALITY MEASURE: VOLUME OF TETRAHEDRON DIVIDED BY THE 
           VOLUME OF EQUILATERAL TETRAHEDRON WITH SAME CIRCUMSPHERE RADIUS; 
           0 FOR DEGENERATE TETRAHEDRON AND 1 FOR EQUILATERIAL TETRAHEDRON. IT 
           IS RECOMMENDED THAT THE TETRAHEDRAL QUALITY MEASURE BE GREATER THAN 
           0.02, THE MIN INTERIOR (DIHEDRAL) ANGLE BE GREATER THAN 10 DEGREES, 
           AND THE MAX INTERIOR (DIHEDRAL) ANGLE BE LESS THAN 160 DEGREES. 
  
           MODIFIED TETRAHEDRAL QUALITY MEASURE: ANGLES BETWEEN THE TWO LINE 
           SEGMENTS ON EACH EDGE; THE EDGES OF MODIFIED TETRAHEDRAL SHOULD BE 
           AS STRAIGHT AS POSSIBLE. IT IS RECOMMENDED THAT THE ANGLE BETWEEN 
           THE TWO LINE SEGMENTS ON EACH EDGE IS BETWEEN 160 AND 180 DEGREES. 
  
           TRIANGULAR QUALITY MEASURE: AREA OF TRIANGLE DIVIDED BY THE AREA OF 
           EQUILATERAL TRIANGLE WITH SAME CIRCUMCIRCLE RADIUS; 0 FOR DEGENERATE 
           TRIANGLE AND 1 FOR EQUILATERAL TRIANGLE. IT IS RECOMMENDED THAT THE
           TRIANGULAR QUALITY MEASURE BE GREATER THAN 0.01, THE MIN INTERIOR 
           ANGLE BE GREATER THAN 10 DEGREES, AND THE MAX INTERIOR ANGLE BE LESS 
           THAN 160 DEGREES. 
  
           NODAL ADJUSTMENTS ARISING FROM CONTACT INTERACTIONS AND/OR TIE 
           CONSTRAINTS CAN CAUSE SEVERE ELEMENT DISTORTION. IT MAY BE NECESSARY 
           TO REMESH IN ORDER TO REDUCE THE AMOUNT OF ADJUSTMENT. 

 ***WARNING: 1981 elements are distorted. Either the isoparametric angles are 
             out of the suggested limits or the triangular or tetrahedral 
             quality measure is bad. The elements have been identified in 
             element set WarnElemDistorted.
  
 --------------------------------------------------------------------------------
 Distorted tetrahedral elements
  
      Element       Quality measure     Min angle        Max angle     Adjusted nodes 
 ------------------ ---------------- ---------------- ---------------- -------------- 
        PART-1-1.27        0.0194623          16.3598          144.197       NO       
        PART-1-1.45       0.00476855          16.5155          157.188       NO       
        PART-1-1.53       0.00668327          11.4355          158.113       NO       
        PART-1-1.55       0.00617715          12.9484          157.719       NO       
        PART-1-1.65        0.0080134          14.8049          153.593       NO       
        PART-1-1.66       0.00961297          17.5905          153.471       NO       
        PART-1-1.82         0.011439          18.8364          153.481       NO       
        PART-1-1.83      0.000279387          9.36226          161.851       NO       
        PART-1-1.90       0.00347679          16.3736          155.861       NO       
        PART-1-1.91       0.00231623          11.3907          159.124       NO       
        PART-1-1.94       0.00766221          14.0133          151.811       NO       
       PART-1-1.120       0.00142667          13.2868          160.228       NO       
       PART-1-1.170        0.0195909          24.1847          145.953       NO       
       PART-1-1.229        0.0035356          13.1888          151.136       NO       
       PART-1-1.239      0.000893391          11.2749          162.865       NO       
       PART-1-1.252        0.0132067          18.4927          152.456       NO       
       PART-1-1.272         0.018563          20.0374          149.313       NO       
       PART-1-1.300        0.0015019          16.2835          160.662       NO       
       PART-1-1.309       0.00819929          21.0267          155.704       NO       
       PART-1-1.311        0.0118517          18.1167          152.588       NO       
       PART-1-1.355        0.0128424          17.6986          154.408       NO       
       PART-1-1.377       0.00329324          12.5562          155.143       NO       
       PART-1-1.378      0.000196127          11.3149          167.444       NO       
       PART-1-1.458       0.00618831          10.9302          162.974       NO       
       PART-1-1.468        0.0104542          22.3866          155.367       NO       
       PART-1-1.485        0.0162664          11.7103          151.578       NO       
       PART-1-1.497        0.0158041          24.5208          152.881       NO       
       PART-1-1.529      0.000436973          13.3465          165.168       NO       
       PART-1-1.530       0.00117402          10.5081          158.804       NO       
       PART-1-1.550       0.00158896          15.5424          162.951       NO       
       PART-1-1.561        0.0158828          18.3236          151.047       NO       
       PART-1-1.562       0.00242656          17.9626          160.774       NO       
       PART-1-1.581        0.0271116          9.22812          159.847       NO       
       PART-1-1.590      0.000391477          11.1629          165.225       NO       
       PART-1-1.596        0.0150633          23.7561          153.774       NO       
       PART-1-1.615        0.0076882          19.6443          156.627       NO       
       PART-1-1.617        0.0104684          18.6299           149.46       NO       
       PART-1-1.660       0.00318573          21.1419          159.575       NO       
       PART-1-1.678       0.00369393          9.38873          165.355       NO       
       PART-1-1.725        0.0101017          18.0023          154.064       NO       
       PART-1-1.794        0.0157387          24.5542          152.779       NO       
       PART-1-1.799        0.0172467          15.2269          148.779       NO       
       PART-1-1.809      0.000955977          14.5778           162.83       NO       
       PART-1-1.811         0.017997          19.4342          145.842       NO       
       PART-1-1.818       0.00983047          19.5194          156.089       NO       
       PART-1-1.901       0.00366714          11.0142          157.081       NO       
       PART-1-1.902        0.0160159          9.31672          114.624       NO       
       PART-1-1.911       0.00628672          13.4534          157.611       NO       
       PART-1-1.914       0.00205164          14.2144           160.38       NO       
       PART-1-1.980       0.00106885            10.52          158.147       NO       
       PART-1-1.982        0.0185203          14.2674          151.702       NO       
       PART-1-1.988      4.86323E-05           3.2245          175.004       NO       
       PART-1-1.990      0.000195819          4.93442           170.15       NO       
      PART-1-1.1030       0.00479843          14.2788          156.957       NO       
      PART-1-1.1037       0.00638235          16.0448          155.091       NO       
      PART-1-1.1063       0.00818459          11.7147          157.552       NO       
      PART-1-1.1083       0.00828062          16.5127          154.323       NO       
      PART-1-1.1095      0.000226705          11.2414          166.304       NO       
      PART-1-1.1099       0.00746455          19.9531          156.233       NO       
      PART-1-1.1111       0.00222464          16.7568          157.569       NO       
      PART-1-1.1112      0.000896859          14.8998          164.716       NO       
      PART-1-1.1125       0.00153606          13.7572          161.504       NO       
      PART-1-1.1153        0.0087442          14.2384          153.533       NO       
      PART-1-1.1157       0.00452153          17.7018          154.016       NO       
      PART-1-1.1169       0.00662383          16.7492          157.083       NO       
      PART-1-1.1207        0.0137565          24.0795          153.384       NO       
      PART-1-1.1215       0.00170904           11.747          160.698       NO       
      PART-1-1.1216       0.00682494          19.6331          153.732       NO       
      PART-1-1.1243        0.0123817          22.2922          152.335       NO       
      PART-1-1.1309        0.0013359          14.9415          159.998       NO       
      PART-1-1.1325       0.00720954          16.9381          155.396       NO       
      PART-1-1.1344        0.0173627          11.6185          161.848       NO       
      PART-1-1.1366       0.00754782          20.4173           155.69       NO       
      PART-1-1.1394       0.00506068          19.1737          158.557       NO       
      PART-1-1.1397        0.0078068          20.9834          155.733       NO       
      PART-1-1.1404       0.00698856          17.7803          118.271       NO       
      PART-1-1.1435       0.00927587          13.5172          142.384       NO       
      PART-1-1.1442        0.0151392          24.7663          152.688       NO       
      PART-1-1.1453      0.000278907           12.441          167.531       NO       
      PART-1-1.1464       0.00327792          17.8512          159.546       NO       
      PART-1-1.1467       0.00288432          16.3836          161.041       NO       
      PART-1-1.1475       0.00486444           16.325          153.511       NO       
      PART-1-1.1482       0.00208184          17.7127          161.374       NO       
      PART-1-1.1493        0.0276507          9.68965          160.066       NO       
      PART-1-1.1504       0.00999168          19.7832          151.922       NO       
      PART-1-1.1539       0.00936431          35.3324          144.964       NO       
      PART-1-1.1576        0.0157142          16.0408           147.85       NO       
      PART-1-1.1595       0.00410974           17.684            159.4       NO       
      PART-1-1.1596       0.00861455          17.0091          154.381       NO       
      PART-1-1.1614       0.00068819          10.9281          159.755       NO       
      PART-1-1.1638        0.0148144          16.6824          154.573       NO       
      PART-1-1.1641         0.016145          18.2141          133.401       NO       
      PART-1-1.1657        0.0183058          24.6879           152.43       NO       
      PART-1-1.1672       0.00305497           29.699          145.495       NO       
      PART-1-1.1678       0.00715045          15.2766          155.118       NO       
      PART-1-1.1679        0.0196618          15.2791          149.007       NO       
      PART-1-1.1686         0.009364          14.4737          155.712       NO       
      PART-1-1.1690       0.00363209          12.7465          161.835       NO       
      PART-1-1.1743       0.00240804          8.75882          166.372       NO       
      PART-1-1.1775      4.27155E-08          1.09193          178.317       NO       
      PART-1-1.1779       0.00555139          14.2012          159.291       NO       
      PART-1-1.1794       0.00618894          14.5997          158.439       NO       
      PART-1-1.1798       0.00877661          20.6804          155.221       NO       
      PART-1-1.1845         0.154893          8.33127          153.176       NO       
      PART-1-1.1884       0.00845775          12.9251            157.4       NO       
      PART-1-1.1896       0.00742786          14.0871          153.703       NO       
      PART-1-1.1936       0.00845905           12.925          157.399       NO       
      PART-1-1.1942       0.00646336           12.544          158.851       NO       
      PART-1-1.1961       0.00812238          17.4128           154.87       NO       
      PART-1-1.1998        0.0875852          8.15206          109.161       NO       
      PART-1-1.2021       0.00585035          12.0279          157.795       NO       
      PART-1-1.2022        0.0084952          13.7695          154.122       NO       
      PART-1-1.2032       0.00519578          11.8678          158.762       NO       
      PART-1-1.2048       0.00480494          12.5726          156.294       NO       
      PART-1-1.2073        0.0180258          19.0077          150.455       NO       
      PART-1-1.2087       0.00109267          15.6467          163.126       NO       
      PART-1-1.2159       0.00873787          19.5883          152.614       NO       
      PART-1-1.2181       0.00191351           11.622          158.929       NO       
      PART-1-1.2241       0.00941401          16.3568          152.278       NO       
      PART-1-1.2249       0.00827274          10.6397          157.939       NO       
      PART-1-1.2259       0.00597394          16.8251           153.52       NO       
      PART-1-1.2293        0.0187375          21.4571          147.972       NO       
      PART-1-1.2361       0.00212288          18.2798          160.986       NO       
      PART-1-1.2373       0.00598072          13.1057          152.198       NO       
      PART-1-1.2386       0.00489024          16.0334           157.53       NO       
      PART-1-1.2400       0.00379961           18.559          157.007       NO       
      PART-1-1.2414        0.0060347          18.3099          154.855       NO       
      PART-1-1.2421       0.00760371          19.6085          153.313       NO       
      PART-1-1.2459        0.0140765          23.4936           153.95       NO       
      PART-1-1.2467        0.0027784          15.9171          156.932       NO       
      PART-1-1.2483      3.04485E-06            4.944          175.478       NO       
      PART-1-1.2508       0.00722746          20.2479          156.061       NO       
      PART-1-1.2522        0.0135571          20.7811          154.365       NO       
      PART-1-1.2531        0.0168431          26.3572          150.581       NO       
      PART-1-1.2536        0.0146387          16.8919          144.342       NO       
      PART-1-1.2538       0.00909041          19.1419          152.668       NO       
      PART-1-1.2543       0.00158314          15.5229          159.085       NO       
      PART-1-1.2564        0.0014343          16.0281           163.23       NO       
      PART-1-1.2569        0.0110409          21.4197          153.752       NO       
      PART-1-1.2578       0.00752943          16.5538          153.842       NO       
      PART-1-1.2613        0.0467384          8.90362          159.352       NO       
      PART-1-1.2623       0.00756748           21.176          156.874       NO       
      PART-1-1.2628       0.00145205           10.858          160.513       NO       
      PART-1-1.2631      0.000206868          9.15436          169.535       NO       
      PART-1-1.2632      0.000216551          7.33447           163.55       NO       
      PART-1-1.2633       0.00731635          10.8957          152.644       NO       
      PART-1-1.2637       0.00640963          10.4641          161.586       NO       
      PART-1-1.2644      0.000622732          12.5961          162.477       NO       
      PART-1-1.2667       0.00845028          12.9203          157.406       NO       
      PART-1-1.2675      0.000941934          14.0821          163.105       NO       
      PART-1-1.2704      0.000343899          11.5023          165.888       NO       
      PART-1-1.2715      0.000689905          11.8727          162.678       NO       
      PART-1-1.2716       0.00233142          14.1904          159.269       NO       
      PART-1-1.2717       0.00835819           13.921          152.232       NO       
      PART-1-1.2719        0.0183273          21.4322           144.32       NO       
      PART-1-1.2745       0.00571651          13.0705           156.13       NO       
      PART-1-1.2789        0.0092414          17.0252           153.73       NO       
      PART-1-1.2794       0.00451839          16.8564          157.254       NO       
      PART-1-1.2809       0.00915726          22.3393          155.338       NO       
      PART-1-1.2811        0.0159271          18.6828          147.158       NO       
      PART-1-1.2812      0.000305831          12.5203          166.649       NO       
      PART-1-1.2820        0.0123099          11.1409          162.548       NO       
      PART-1-1.2836      0.000693643           14.478          165.237       NO       
      PART-1-1.2851       0.00708342          17.0971          155.442       NO       
      PART-1-1.2856       0.00463569          15.4547          155.387       NO       
      PART-1-1.2869        0.0153606          16.4802          152.477       NO       
      PART-1-1.2891        0.0145046          15.5678           147.51       NO       
      PART-1-1.2907        0.0129109          23.9364          153.508       NO       
      PART-1-1.2924       0.00369866          12.6133          155.993       NO       
      PART-1-1.2944       0.00132517          12.7003          161.229       NO       
      PART-1-1.2947        0.0109942          21.4726           150.93       NO       
      PART-1-1.2952       0.00718165          17.0565          156.176       NO       
      PART-1-1.2953        0.0137366          14.9768          155.163       NO       
      PART-1-1.2959       0.00512199          19.0609           157.65       NO       
      PART-1-1.3003      0.000584419           12.827          164.624       NO       
      PART-1-1.3009       0.00621251           15.371          155.431       NO       
      PART-1-1.3027      2.39629E-05            6.493          173.094       NO       
      PART-1-1.3039       0.00305015          17.5149          160.944       NO       
      PART-1-1.3082        0.0155793          19.4134          146.769       NO       
      PART-1-1.3133      0.000227154          10.4565          166.379       NO       
      PART-1-1.3160       0.00264965          14.9448          159.015       NO       
      PART-1-1.3193       0.00642355          14.1297          154.204       NO       
      PART-1-1.3235      0.000930621          14.0588          161.492       NO       
      PART-1-1.3247        0.0188309          12.8247          160.045       NO       
      PART-1-1.3251       0.00868649          14.8564          152.834       NO       
      PART-1-1.3293       0.00552149          14.5486          156.411       NO       
      PART-1-1.3300      5.72546E-05          4.84521          172.607       NO       
      PART-1-1.3303        0.0139108          18.5416          151.783       NO       
      PART-1-1.3331       0.00362322          15.7168          157.568       NO       
      PART-1-1.3337        0.0112324          14.9259          152.578       NO       
      PART-1-1.3339        0.0109677          22.4325          154.066       NO       
      PART-1-1.3340       0.00320792           18.701          160.277       NO       
      PART-1-1.3346       0.00850272          20.1124          149.639       NO       
      PART-1-1.3353      0.000886938          14.7751          163.928       NO       
      PART-1-1.3354        0.0070049          19.4009          153.699       NO       
      PART-1-1.3355       0.00145829           12.292          155.073       NO       
      PART-1-1.3356      0.000577512          10.3461          162.178       NO       
      PART-1-1.3357       0.00497372          13.4907          152.083       NO       
      PART-1-1.3358       0.00174892            11.71          158.859       NO       
      PART-1-1.3361      0.000651673          14.3451          162.379       NO       
      PART-1-1.3367        0.0018214          14.2683          160.142       NO       
      PART-1-1.3389       0.00164443          16.2527          162.832       NO       
      PART-1-1.3425       0.00878751          20.6671          155.342       NO       
      PART-1-1.3432        0.0195011          13.9689          153.683       NO       
      PART-1-1.3463      0.000517062          13.3566          165.873       NO       
      PART-1-1.3466      0.000521143          13.6068          163.356       NO       
      PART-1-1.3469         0.017243          17.1055          145.055       NO       
      PART-1-1.3472        0.0183402          19.6364           145.72       NO       
      PART-1-1.3501       0.00162761          11.2232          157.662       NO       
      PART-1-1.3536       0.00698314          18.4858          154.267       NO       
      PART-1-1.3561        0.0166654          19.1519          150.498       NO       
      PART-1-1.3563       0.00580321          14.4844           156.18       NO       
      PART-1-1.3578       0.00872769          21.0985          154.967       NO       
      PART-1-1.3581        0.0191751          18.5465          148.773       NO       
      PART-1-1.3590        0.0191513          17.1211          151.685       NO       
      PART-1-1.3592       0.00363379          16.9213          155.428       NO       
      PART-1-1.3608        0.0172721          27.4211          148.228       NO       
      PART-1-1.3628        0.0162319          14.8688          150.177       NO       
      PART-1-1.3689       0.00755188          13.4857          153.659       NO       
      PART-1-1.3690       0.00723141          17.8058          151.944       NO       
      PART-1-1.3718       0.00977295          20.2467          148.843       NO       
      PART-1-1.3761        0.0135736          15.4972          148.176       NO       
      PART-1-1.3791        0.0276649          9.69432          160.046       NO       
      PART-1-1.3830       0.00534931          11.9718          159.245       NO       
      PART-1-1.3861       0.00204592          15.4676          160.101       NO       
      PART-1-1.3865       0.00415869          12.6386           155.44       NO       
      PART-1-1.3866        0.0127572          20.0436          147.523       NO       
      PART-1-1.3884       0.00120527          13.1179          162.147       NO       
      PART-1-1.3886       0.00401399          18.0608          156.772       NO       
      PART-1-1.3890       0.00179114          16.1974          161.905       NO       
      PART-1-1.3893      0.000204259          9.73724          165.738       NO       
      PART-1-1.3894      0.000303851          8.70885          164.839       NO       
      PART-1-1.3896      0.000190555          11.5452          166.607       NO       
      PART-1-1.3897       0.00261629          12.5721          154.742       NO       
      PART-1-1.3899       0.00190374          15.9878          158.504       NO       
      PART-1-1.3901       0.00152025          13.0527          160.117       NO       
      PART-1-1.3902      0.000310221          13.0422          166.946       NO       
      PART-1-1.3905       0.00144968          15.9031          160.995       NO       
      PART-1-1.3907         0.005763          19.6906          156.892       NO       
      PART-1-1.3908      0.000468358          13.6223           165.55       NO       
      PART-1-1.3916        0.0952965          8.49562          137.777       NO       
      PART-1-1.3921       0.00242807          15.5198          157.739       NO       
      PART-1-1.3924       0.00805139          13.6948          152.253       NO       
      PART-1-1.3927      0.000155446          7.62549          166.762       NO       
      PART-1-1.3928       0.00124587          11.3028          158.489       NO       
      PART-1-1.3929      0.000255928          9.12804          161.185       NO       
      PART-1-1.3931      0.000781801           11.827          162.027       NO       
      PART-1-1.3932      0.000312429          13.7144          162.214       NO       
      PART-1-1.3935       0.00119771          13.3524          162.307       NO       
      PART-1-1.3936       0.00115387          15.2996           160.57       NO       
      PART-1-1.3937       0.00217525          18.2164          160.865       NO       
      PART-1-1.3938       0.00301319          12.4504          153.179       NO       
      PART-1-1.3941       0.00326127           17.692          159.218       NO       
      PART-1-1.3950        0.0313942          7.78033          163.716       NO       
      PART-1-1.3953       0.00361083          15.8221          156.018       NO       
      PART-1-1.3956       0.00219421          10.8311          159.742       NO       
      PART-1-1.3999        0.0145638          22.9894          152.299       NO       
      PART-1-1.4003        0.0144903          15.5246          150.392       NO       
      PART-1-1.4008        0.0152051          19.6738          151.045       NO       
      PART-1-1.4016         0.014802          21.3038          155.944       NO       
      PART-1-1.4025        0.0121636          24.9391          148.781       NO       
      PART-1-1.4104       0.00446612          17.6287          156.494       NO       
      PART-1-1.4131        0.0053261          14.5322          156.277       NO       
      PART-1-1.4136        0.0137092          14.3782          150.913       NO       
      PART-1-1.4137       0.00213213          15.6613          158.319       NO       
      PART-1-1.4144        0.0139961            18.85          151.496       NO       
      PART-1-1.4154         0.008466          17.7903          154.419       NO       
      PART-1-1.4242        0.0062897           13.913          150.223       NO       
      PART-1-1.4243       0.00319216          13.1853          153.692       NO       
      PART-1-1.4249        0.0025151          15.5192          157.552       NO       
      PART-1-1.4309       0.00808812          14.7735          148.786       NO       
      PART-1-1.4313       0.00617902          14.3351          159.005       NO       
      PART-1-1.4329        0.0110154          17.3228           153.54       NO       
      PART-1-1.4335       0.00758709          20.3072          156.392       NO       
      PART-1-1.4341       0.00748877          19.7937          150.525       NO       
      PART-1-1.4343       0.00956458          19.5463          152.313       NO       
      PART-1-1.4344         0.003395          18.0565          159.494       NO       
      PART-1-1.4379        0.0109978          19.0038          148.944       NO       
      PART-1-1.4397       0.00657389          17.7882          161.363       NO       
      PART-1-1.4417       0.00131369          16.6071           162.95       NO       
      PART-1-1.4419        0.0107039          21.6651          148.793       NO       
      PART-1-1.4436        0.0177604          16.8825          152.101       NO       
      PART-1-1.4438       0.00358438          12.4437          155.524       NO       
      PART-1-1.4447        0.0099275          21.8862          154.966       NO       
      PART-1-1.4448        0.0147153          15.7135           148.04       NO       
      PART-1-1.4473        0.0041376          18.8569          158.556       NO       
      PART-1-1.4484       0.00151097          13.6793          161.144       NO       
      PART-1-1.4489      0.000650835          14.3877          165.213       NO       
      PART-1-1.4512       0.00954543          15.5483          144.722       NO       
      PART-1-1.4552       0.00155112           10.653          160.578       NO       
      PART-1-1.4556        0.0111826          20.5957          150.748       NO       
      PART-1-1.4616       0.00685462          7.18898          165.082       NO       
      PART-1-1.4667       0.00149451          12.5911          160.505       NO       
      PART-1-1.4679         0.166616          9.05364          156.203       NO       
      PART-1-1.4681       0.00219414          15.9434          157.901       NO       
      PART-1-1.4689       0.00658364          13.8552          151.571       NO       
      PART-1-1.4698       0.00211839          14.3939          159.628       NO       
      PART-1-1.4756        0.0194548          13.0059          158.552       NO       
      PART-1-1.4767        0.0134284          18.3073          152.675       NO       
      PART-1-1.4801       0.00775045          17.6339          144.805       NO       
      PART-1-1.4812       0.00556403          14.2107          159.278       NO       
      PART-1-1.4831       0.00277321          12.4391          154.949       NO       
      PART-1-1.4833        0.0142984          23.6645          153.587       NO       
      PART-1-1.4835       0.00581816          15.7127          155.665       NO       
      PART-1-1.4854       0.00315836          12.9498            158.4       NO       
      PART-1-1.4856        0.0175049           14.292           151.11       NO       
      PART-1-1.4857        0.0184782          21.8422          147.862       NO       
      PART-1-1.4870       0.00847899          21.2791          154.942       NO       
      PART-1-1.4875       0.00843753          15.0658          152.468       NO       
      PART-1-1.4931         0.012371          19.8266          151.266       NO       
      PART-1-1.4945      1.24487E-07          2.83017          177.466       NO       
      PART-1-1.4992       0.00984953          14.9442          148.446       NO       
      PART-1-1.4995       0.00206696          16.5397          159.547       NO       
      PART-1-1.4997       0.00647166           19.296          157.233       NO       
      PART-1-1.4998       0.00387896          13.3092          153.648       NO       
      PART-1-1.5003       0.00166808          12.9653          160.307       NO       
      PART-1-1.5017       0.00452707          19.2435          158.714       NO       
      PART-1-1.5022       0.00224331          15.7174          157.851       NO       
      PART-1-1.5027       0.00162405          13.4138          160.758       NO       
      PART-1-1.5037        0.0190252          26.0045          150.976       NO       
      PART-1-1.5040       0.00700651          17.1531           153.78       NO       
      PART-1-1.5122       0.00641326          19.6908          151.674       NO       
      PART-1-1.5125       0.00842047          17.9768          152.794       NO       
      PART-1-1.5132       0.00439074          14.5143           157.15       NO       
      PART-1-1.5147        0.0173633          15.2617          150.347       NO       
      PART-1-1.5156       0.00392444          9.61208          165.041       NO       
      PART-1-1.5173       0.00171373          16.0414          158.819       NO       
      PART-1-1.5176       0.00963951          11.3501          162.452       NO       
      PART-1-1.5241      0.000570666          6.66473          169.673       NO       
      PART-1-1.5246       0.00678675          12.9097          152.738       NO       
      PART-1-1.5247       0.00807728          18.4071          153.608       NO       
      PART-1-1.5250        0.0104867          10.7763          157.679       NO       
      PART-1-1.5293      0.000574819          9.60577          163.136       NO       
      PART-1-1.5295       0.00535949          13.8803          152.708       NO       
      PART-1-1.5316        0.0120292          14.6134          150.579       NO       
      PART-1-1.5321        0.0245825          12.7844          160.076       NO       
      PART-1-1.5326        0.0169467          19.3961          152.431       NO       
      PART-1-1.5350       0.00264071          12.8508          159.449       NO       
      PART-1-1.5359       0.00179861          15.4892          162.591       NO       
      PART-1-1.5448       0.00461648          13.2533          151.556       NO       
      PART-1-1.5449        0.0107782          28.1733          155.107       NO       
      PART-1-1.5456        0.0139595          23.8426          153.519       NO       
      PART-1-1.5462       0.00258298          18.5788          160.367       NO       
      PART-1-1.5465       0.00145175          13.1438          160.275       NO       
      PART-1-1.5478       0.00925147          19.3666          152.501       NO       
      PART-1-1.5481        0.0154366          23.7266          153.499       NO       
      PART-1-1.5487         0.014169          21.2059          149.191       NO       
      PART-1-1.5496        0.0133714             17.8           150.67       NO       
      PART-1-1.5498       0.00168285          16.0972          158.917       NO       
      PART-1-1.5499       0.00618313          15.9013          155.067       NO       
      PART-1-1.5506        0.0128818          24.1439          153.313       NO       
      PART-1-1.5508        0.0107707          20.1723          148.438       NO       
      PART-1-1.5529       0.00806095          19.8722          156.271       NO       
      PART-1-1.5546      5.09874E-07          2.61363          175.131       NO       
      PART-1-1.5549        0.0105356           17.729          152.742       NO       
      PART-1-1.5566        0.0133706          19.4369          147.547       NO       
      PART-1-1.5578       0.00695542          21.8927           152.48       NO       
      PART-1-1.5579        0.0112375          17.5776          152.568       NO       
      PART-1-1.5584       0.00828158          20.2077          155.828       NO       
      PART-1-1.5635        0.0105179           16.442          153.306       NO       
      PART-1-1.5670        0.0127956          20.2238           147.24       NO       
      PART-1-1.5682        0.0082933          13.9096           154.67       NO       
      PART-1-1.5687       0.00399632          11.5992          157.108       NO       
      PART-1-1.5691       0.00371641          22.2813           156.61       NO       
      PART-1-1.5692      1.52366E-05          4.52201          171.281       NO       
      PART-1-1.5693      2.07568E-06          3.16798          174.035       NO       
      PART-1-1.5716       0.00722295           15.648          154.689       NO       
      PART-1-1.5723        0.0121389          23.0051          154.505       NO       
      PART-1-1.5753       0.00774212          19.4499          153.271       NO       
      PART-1-1.5771        0.0128356          17.9914          151.907       NO       
      PART-1-1.5829        0.0334415          8.40775          162.584       NO       
      PART-1-1.5837       0.00337141          12.6368          158.189       NO       
      PART-1-1.5857        0.0124298          15.0307          150.607       NO       
      PART-1-1.5902        0.0158932          14.1601          157.772       NO       
      PART-1-1.5909       0.00207288          13.4235          159.826       NO       
      PART-1-1.5915        0.0026556          12.9233          154.129       NO       
      PART-1-1.5923        0.0216403          8.26145          163.032       NO       
      PART-1-1.5948       0.00721289           6.6099          165.144       NO       
      PART-1-1.6010       0.00159915           9.7282          162.908       NO       
      PART-1-1.6072        0.0169671            22.96          147.265       NO       
      PART-1-1.6085        0.0100046           12.685          152.559       NO       
      PART-1-1.6109        0.0284624          12.2138          160.264       NO       
      PART-1-1.6114       0.00917054           15.147          150.519       NO       
      PART-1-1.6118       0.00921001          22.3538          154.516       NO       
      PART-1-1.6120       0.00157296          7.86657          167.786       NO       
      PART-1-1.6125        0.0125686          20.4653          147.327       NO       
      PART-1-1.6132        0.0183919          21.7884          147.902       NO       
      PART-1-1.6145       0.00765522          19.4847          153.368       NO       
      PART-1-1.6206       0.00171845          11.4111          156.937       NO       
      PART-1-1.6255        0.0163136           8.2606          141.967       NO       
      PART-1-1.6306       0.00151732          16.0098          160.902       NO       
      PART-1-1.6309       0.00277025           12.458          154.573       NO       
      PART-1-1.6317       0.00725602          21.7858          156.182       NO       
      PART-1-1.6321       0.00411993          7.26817          161.268       NO       
      PART-1-1.6323        0.0139943          15.8308          153.265       NO       
      PART-1-1.6324      0.000672171          10.6158          164.712       NO       
      PART-1-1.6329        0.0127492          13.9131          158.192       NO       
      PART-1-1.6336        0.0134945            18.77          154.061       NO       
      PART-1-1.6353       0.00206393          6.42137          166.409       NO       
      PART-1-1.6357         0.124009           7.8787          166.603       NO       
      PART-1-1.6370        0.0105436          20.7603          151.012       NO       
      PART-1-1.6400       0.00936484          16.3512          156.443       NO       
      PART-1-1.6407      0.000628247          10.2342           163.09       NO       
      PART-1-1.6411       0.00430322          11.1037           157.23       NO       
      PART-1-1.6421        0.0090946          14.6194          155.232       NO       
      PART-1-1.6422      0.000227507          7.94071          164.285       NO       
      PART-1-1.6424      0.000541791          7.07448          169.038       NO       
      PART-1-1.6447       0.00241156          10.7446           156.51       NO       
      PART-1-1.6448      0.000207576          10.0277           168.01       NO       
      PART-1-1.6452       0.00206972           17.572          161.497       NO       
      PART-1-1.6453      0.000161212          7.75503          163.933       NO       
      PART-1-1.6460      0.000293039          5.96412          168.715       NO       
      PART-1-1.6470      0.000923787          6.66334          167.878       NO       
      PART-1-1.6471      6.84879E-05          4.97507           172.46       NO       
      PART-1-1.6486       0.00362982          11.7765          160.364       NO       
      PART-1-1.6504      0.000223108          5.49813          169.184       NO       
      PART-1-1.6546       0.00340848          13.2344          153.983       NO       
      PART-1-1.6547       0.00285354          17.4754           156.18       NO       
      PART-1-1.6552       0.00495582          18.7055          158.115       NO       
      PART-1-1.6556       0.00132679          15.1205          162.777       NO       
      PART-1-1.6557        0.0111307          22.2076          150.326       NO       
      PART-1-1.6560       0.00515376          10.7377          158.575       NO       
      PART-1-1.6562       0.00254035          18.0614          160.771       NO       
      PART-1-1.6583       0.00168625          10.9944          160.289       NO       
      PART-1-1.6586        0.0091596          14.5932          150.927       NO       
      PART-1-1.6589       0.00784395          15.8869          153.676       NO       
      PART-1-1.6596       0.00180524          13.4523          160.528       NO       
      PART-1-1.6605         0.013812          23.0261          154.283       NO       
      PART-1-1.6606        0.0169656          18.5944          150.733       NO       
      PART-1-1.6621       0.00704383          14.0941          154.083       NO       
      PART-1-1.6647       0.00683192          19.4209          157.143       NO       
      PART-1-1.6649       0.00522052          19.4729          158.301       NO       
      PART-1-1.6678       0.00527919          15.1087          156.344       NO       
      PART-1-1.6711       0.00276609          18.3688          160.201       NO       
      PART-1-1.6746        0.0122241          22.9903          154.585       NO       
      PART-1-1.6756       0.00624128          25.0237           152.54       NO       
      PART-1-1.6786        0.0158137          14.7064          150.159       NO       
      PART-1-1.6809       0.00022881          8.88144          163.803       NO       
      PART-1-1.6811      0.000545889          11.1119          163.357       NO       
      PART-1-1.6834       0.00626521          14.4417          155.819       NO       
      PART-1-1.6856      0.000205859          4.09108          173.492       NO       
      PART-1-1.6857        0.0057176          14.0992          155.162       NO       
      PART-1-1.6865      0.000481008          9.32691          169.078       NO       
      PART-1-1.6874        0.0124129          15.4249          149.186       NO       
      PART-1-1.6876       0.00102881          14.4095          164.326       NO       
      PART-1-1.6889       0.00152846          12.4561          158.695       NO       
      PART-1-1.6954       0.00921109          21.5944          155.334       NO       
      PART-1-1.6974       0.00698167          19.4304          153.721       NO       
      PART-1-1.6984        0.0157479          16.0088          149.688       NO       
      PART-1-1.6993        0.0188342          19.5204          149.511       NO       
      PART-1-1.7011       0.00209148           8.9456          166.051       NO       
      PART-1-1.7045       0.00941878           19.732          149.303       NO       
      PART-1-1.7082      0.000576897          9.94408          162.483       NO       
      PART-1-1.7094        0.0109386           21.863          158.548       NO       
      PART-1-1.7096      0.000307328          9.24935          162.287       NO       
      PART-1-1.7100       0.00595478          18.2525          155.064       NO       
      PART-1-1.7105       0.00347703          17.2159          155.455       NO       
      PART-1-1.7106       0.00171993          15.6394          160.593       NO       
      PART-1-1.7108        0.0052387          18.9621          157.524       NO       
      PART-1-1.7111       0.00147324          12.1404           161.02       NO       
      PART-1-1.7114       0.00273069            14.83          158.973       NO       
      PART-1-1.7118       0.00192107          16.1753          162.006       NO       
      PART-1-1.7134       0.00603257          18.7531          154.698       NO       
      PART-1-1.7137        0.0108756          22.8861          154.864       NO       
      PART-1-1.7141       0.00638345          14.0469          151.287       NO       
      PART-1-1.7144         0.013261          14.8691          149.998       NO       
      PART-1-1.7147      0.000481479          10.2248          159.674       NO       
      PART-1-1.7151         0.019167          23.7819          146.725       NO       
      PART-1-1.7153       0.00167373          13.5274          161.293       NO       
      PART-1-1.7157      0.000199382          11.2342          168.402       NO       
      PART-1-1.7172       0.00272319          16.9431          159.042       NO       
      PART-1-1.7183       0.00553258          14.2017            159.3       NO       
      PART-1-1.7210        0.0017558          16.2123          160.229       NO       
      PART-1-1.7228        0.0130032          17.3829          151.293       NO       
      PART-1-1.7230      0.000883032          11.9264          161.651       NO       
      PART-1-1.7253       0.00555094          13.4753          158.909       NO       
      PART-1-1.7276        0.0158403          19.6517          150.339       NO       
      PART-1-1.7297      0.000917915          12.9756           161.72       NO       
      PART-1-1.7324       0.00597829           16.074          155.293       NO       
      PART-1-1.7345        0.0092245          20.0564          152.114       NO       
      PART-1-1.7350       0.00349861          18.0938          159.175       NO       
      PART-1-1.7353        0.0159909          24.3825          153.218       NO       
      PART-1-1.7398        0.0108951          11.0986          160.132       NO       
      PART-1-1.7427        0.0152763          16.7681          152.431       NO       
      PART-1-1.7440        0.0173777          16.9437           151.78       NO       
      PART-1-1.7466      0.000234698          11.8846          168.384       NO       
      PART-1-1.7524       0.00469536          13.4398          151.616       NO       
      PART-1-1.7526       0.00618965           13.861          158.639       NO       
      PART-1-1.7531       0.00409074          12.2386          157.317       NO       
      PART-1-1.7561       0.00149253          16.0988           163.11       NO       
      PART-1-1.7562      0.000559228          13.5805          165.624       NO       
      PART-1-1.7565      0.000180174          9.18282          166.424       NO       
      PART-1-1.7577       0.00426987          17.2218          157.198       NO       
      PART-1-1.7611        0.0152211          15.9925          147.353       NO       
      PART-1-1.7625       0.00121412          15.9776          161.408       NO       
      PART-1-1.7659        0.0184641           19.135          149.887       NO       
      PART-1-1.7696        0.0055132          19.7884          158.571       NO       
      PART-1-1.7709       0.00706868          18.2365          154.393       NO       
      PART-1-1.7785        0.0197328          9.93658          158.185       NO       
      PART-1-1.7799        0.0015016          12.4686          160.707       NO       
      PART-1-1.7809       0.00130942          17.5226          162.298       NO       
      PART-1-1.7815       0.00727663          18.9944          153.755       NO       
      PART-1-1.7832       0.00090417          14.0946          163.161       NO       
      PART-1-1.7839      9.19675E-05          9.12449          169.803       NO       
      PART-1-1.7841       0.00928409          22.2176          155.553       NO       
      PART-1-1.7842       0.00175561          16.1764          162.172       NO       
      PART-1-1.7846       0.00176152          15.7355          158.808       NO       
      PART-1-1.7868        0.0182628          13.4717          153.352       NO       
      PART-1-1.7870        0.0149111          25.1465          151.785       NO       
      PART-1-1.7872        0.0104281          21.2733          148.053       NO       
      PART-1-1.7875        0.0122099           14.671          151.553       NO       
      PART-1-1.7884       0.00902901          21.6673          155.698       NO       
      PART-1-1.7888       0.00706785          20.1775           156.12       NO       
      PART-1-1.7892        0.0155651          9.66346           158.22       NO       
      PART-1-1.7894        0.0018316          16.2339          161.935       NO       
      PART-1-1.7903       0.00138255          12.6328          161.003       NO       
      PART-1-1.7904       0.00482923          18.4002          158.643       NO       
      PART-1-1.7906        0.0111024          9.41901          152.061       NO       
      PART-1-1.7909        0.0109553           26.758          148.724       NO       
      PART-1-1.7923       0.00180454          11.6006          159.175       NO       
      PART-1-1.7925       0.00845022          16.0563          155.791       NO       
      PART-1-1.7928       0.00510674          14.7626          156.323       NO       
      PART-1-1.7952       0.00930889          17.9407          154.544       NO       
      PART-1-1.7960       0.00362314          11.4666          157.252       NO       
      PART-1-1.7982       0.00771122          14.3302          149.732       NO       
      PART-1-1.7985       0.00323763          12.9746          154.206       NO       
      PART-1-1.7987       0.00525473          12.7736          156.226       NO       
      PART-1-1.7990       0.00597926           6.9544          168.721       NO       
      PART-1-1.7994       0.00528057          18.5574          158.207       NO       
      PART-1-1.8001       0.00177603          11.2442          159.356       NO       
      PART-1-1.8006        0.0060813          19.6204          156.963       NO       
      PART-1-1.8008        0.0014683          12.9025          160.644       NO       
      PART-1-1.8025      2.43001E-05          5.52278          168.327       NO       
      PART-1-1.8026        0.0166707          25.1403          152.284       NO       
      PART-1-1.8031       0.00570018          20.1249          157.687       NO       
      PART-1-1.8034       0.00165296          11.0123          160.056       NO       
      PART-1-1.8036       0.00169328          15.2621          162.752       NO       
      PART-1-1.8038        0.0129082          20.4239          148.451       NO       
      PART-1-1.8040       0.00558882          15.1368          156.091       NO       
      PART-1-1.8042       0.00200939          13.9276          159.874       NO       
      PART-1-1.8049         0.027645           9.6926          160.075       NO       
      PART-1-1.8051        0.0108683          20.9405          154.075       NO       
      PART-1-1.8055       0.00782875          16.0752          153.794       NO       
      PART-1-1.8058       0.00218201          13.9731          159.455       NO       
      PART-1-1.8059        0.0055904          14.2174          159.267       NO       
      PART-1-1.8062        0.0110047          16.2792          142.503       NO       
      PART-1-1.8108       0.00906846            19.97          152.156       NO       
      PART-1-1.8135       0.00703517          14.3437           154.09       NO       
      PART-1-1.8141        0.0166549           24.274          153.013       NO       
      PART-1-1.8142       0.00154442          12.9045          160.396       NO       
      PART-1-1.8143       0.00771345          10.8486          163.036       NO       
      PART-1-1.8146      0.000187882          9.44056            164.4       NO       
      PART-1-1.8152        0.0097288          14.1308          151.082       NO       
      PART-1-1.8155       0.00833986          19.8348          149.911       NO       
      PART-1-1.8212       0.00317044          18.2761          158.932       NO       
      PART-1-1.8224         0.015507          24.2371          152.877       NO       
      PART-1-1.8227        0.0125776          18.1594          152.549       NO       
      PART-1-1.8228       8.5697E-07          2.96951          174.751       NO       
      PART-1-1.8229        0.0054935          18.8013          159.638       NO       
      PART-1-1.8255       0.00141164          14.7156          158.159       NO       
      PART-1-1.8268       0.00695624          16.8639          155.573       NO       
      PART-1-1.8278        0.0087153          19.2956          152.832       NO       
      PART-1-1.8294       0.00916745          13.8196          151.629       NO       
      PART-1-1.8303       0.00704231          16.3938          154.692       NO       
      PART-1-1.8305       0.00182754          14.4779          161.081       NO       
      PART-1-1.8311       0.00716528          16.5021           153.64       NO       
      PART-1-1.8322       0.00555914          14.2082          159.282       NO       
      PART-1-1.8338        0.0120016           24.254          153.364       NO       
      PART-1-1.8353        0.0144314          14.9649          149.672       NO       
      PART-1-1.8373       0.00476043          16.0716          157.442       NO       
      PART-1-1.8379        0.0171806          22.5418          151.807       NO       
      PART-1-1.8395        0.0123848          19.5508           147.99       NO       
      PART-1-1.8409      9.85585E-05          11.8214          168.477       NO       
      PART-1-1.8448      0.000447515          13.0503          161.596       NO       
      PART-1-1.8454       0.00280516          18.2195          160.721       NO       
      PART-1-1.8455      0.000275372           10.609          165.812       NO       
      PART-1-1.8498        0.0128011          15.9847          153.663       NO       
      PART-1-1.8522         0.001504          16.9359          162.616       NO       
      PART-1-1.8534       0.00514328          16.2623          156.964       NO       
      PART-1-1.8549      0.000413401           13.493          166.071       NO       
      PART-1-1.8572       0.00773809          21.9691          152.013       NO       
      PART-1-1.8573        0.0119492          19.4475          155.309       NO       
      PART-1-1.8579       0.00325182          15.1089          158.115       NO       
      PART-1-1.8580        0.0108015          19.2404          148.887       NO       
      PART-1-1.8588       0.00288252          18.7807          160.054       NO       
      PART-1-1.8593        0.0115694          22.9093          154.852       NO       
      PART-1-1.8614        0.0129705          23.1496          154.448       NO       
      PART-1-1.8648         0.010932          19.5642          148.611       NO       
      PART-1-1.8660      0.000687272          14.1684          164.953       NO       
      PART-1-1.8672      0.000687949          13.6681          166.358       NO       
      PART-1-1.8675       0.00025151          11.2868          168.168       NO       
      PART-1-1.8686        0.0188236          18.7122          149.855       NO       
      PART-1-1.8687       0.00017028          9.86096          167.166       NO       
      PART-1-1.8689       0.00117482          12.5092          161.161       NO       
      PART-1-1.8692      0.000344873           12.835          166.481       NO       
      PART-1-1.8695      0.000837718           14.723          164.939       NO       
      PART-1-1.8705        0.0121057          18.0768          152.764       NO       
      PART-1-1.8715       0.00232632           16.155          161.657       NO       
      PART-1-1.8716      0.000601913          14.3868          165.287       NO       
      PART-1-1.8719        0.0016588          11.8893          157.218       NO       
      PART-1-1.8720       0.00299387          14.7135          158.333       NO       
      PART-1-1.8721      0.000685076          10.4169          159.533       NO       
      PART-1-1.8748       0.00539157          14.6436          156.522       NO       
      PART-1-1.8763        0.0192805          21.5822          143.854       NO       
      PART-1-1.8775        0.0042245          13.8444           152.47       NO       
      PART-1-1.8790        0.0183884          21.7799          152.445       NO       
      PART-1-1.8799        0.0016394          15.8515          160.719       NO       
      PART-1-1.8806       0.00193762          13.5928           160.13       NO       
      PART-1-1.8837        0.0672737          9.19778          164.589       NO       
      PART-1-1.8856       0.00996792          18.9617          149.541       NO       
      PART-1-1.8865        0.0197233          9.93586          158.186       NO       
      PART-1-1.8866        0.0155534           9.6616          158.223       NO       
      PART-1-1.8884       0.00903473          16.0832          148.309       NO       
      PART-1-1.8885       0.00845134          16.0571           155.79       NO       
      PART-1-1.8899       0.00716989          16.9256          154.458       NO       
      PART-1-1.8908        0.0034136          11.0522          155.055       NO       
      PART-1-1.8911       0.00201737          18.1387          159.238       NO       
      PART-1-1.8912       0.00430978           10.207          164.142       NO       
      PART-1-1.8914       0.00109703          14.1814          161.455       NO       
      PART-1-1.8918        0.0678815          8.68082          161.934       NO       
      PART-1-1.9000       0.00102502          10.3818          161.171       NO       
      PART-1-1.9001       0.00594131          19.2016          154.432       NO       
      PART-1-1.9032       0.00964252          19.8653          149.267       NO       
      PART-1-1.9036        0.0138996          14.6197          150.744       NO       
      PART-1-1.9040       0.00608619          18.3576          154.862       NO       
      PART-1-1.9053       0.00843973          14.8402          152.933       NO       
      PART-1-1.9090       0.00723142          19.9619           156.24       NO       
      PART-1-1.9092        0.0122277          18.9875          151.182       NO       
      PART-1-1.9116        0.0159671          13.1797          152.761       NO       
      PART-1-1.9129       0.00806514          20.0011          156.114       NO       
      PART-1-1.9140       0.00461119          17.0707          159.855       NO       
      PART-1-1.9147       0.00287071          11.4027          159.005       NO       
      PART-1-1.9151       0.00437244           18.497          158.155       NO       
      PART-1-1.9153        0.0223613          9.84379          158.595       NO       
      PART-1-1.9196       0.00738954          18.6828          153.737       NO       
      PART-1-1.9227        0.0111294          9.55661          164.424       NO       
      PART-1-1.9230         0.140646          8.28093          151.242       NO       
      PART-1-1.9234        0.0121011          15.1233          161.202       NO       
      PART-1-1.9253       0.00480055          16.5362          154.345       NO       
      PART-1-1.9264       0.00221465          15.3499          162.271       NO       
      PART-1-1.9296       0.00336179          14.3727          157.917       NO       
      PART-1-1.9300        0.0112532          18.6779          153.223       NO       
      PART-1-1.9313      0.000819563          10.5135          159.886       NO       
      PART-1-1.9323      0.000150996          8.46712          166.838       NO       
      PART-1-1.9330      0.000343833          11.5253          165.179       NO       
      PART-1-1.9336        0.0161816          14.8209          151.236       NO       
      PART-1-1.9347        0.0139931          7.97409          121.871       NO       
      PART-1-1.9350       0.00593687          20.3736          157.102       NO       
      PART-1-1.9357        0.0126987          19.9057          147.521       NO       
      PART-1-1.9360       0.00870104          13.8142            154.4       NO       
      PART-1-1.9361        0.0133699          23.8607          153.603       NO       
      PART-1-1.9372        0.0125794          22.5492          154.853       NO       
      PART-1-1.9373        0.0166506          23.6426          144.148       NO       
      PART-1-1.9411       0.00141188          16.4765          159.382       NO       
      PART-1-1.9417       0.00256072          18.3433          160.033       NO       
      PART-1-1.9421       0.00234274          12.8079          160.826       NO       
      PART-1-1.9423      1.34728E-05          7.03711          172.666       NO       
      PART-1-1.9435       0.00692009          19.2703          151.319       NO       
      PART-1-1.9437        0.0174976          21.0252          144.914       NO       
      PART-1-1.9441        0.0181758          19.7346          145.626       NO       
      PART-1-1.9444       0.00217382          15.6159          159.325       NO       
      PART-1-1.9447       0.00645833          15.4262          157.545       NO       
      PART-1-1.9466       0.00842613          13.9133          154.226       NO       
      PART-1-1.9468         0.008233          17.0674          154.548       NO       
      PART-1-1.9470        0.0115236          19.7657          148.178       NO       
      PART-1-1.9517        0.0174587          21.8762          144.326       NO       
      PART-1-1.9569        0.0120887          19.5932          148.122       NO       
      PART-1-1.9578         0.017598          21.0603          144.943       NO       
      PART-1-1.9584       0.00106935          13.9732          164.284       NO       
      PART-1-1.9585       0.00814065          18.7362          150.848       NO       
      PART-1-1.9587       0.00106492          10.3137          161.978       NO       
      PART-1-1.9676       0.00337852          13.0429          153.926       NO       
      PART-1-1.9679       0.00328995          13.0028          156.584       NO       
      PART-1-1.9680      0.000491472          10.3627          164.096       NO       
      PART-1-1.9683      0.000928207          10.3457          159.908       NO       
      PART-1-1.9694       0.00110888          13.1032           161.63       NO       
      PART-1-1.9701       0.00857417          19.1596          153.031       NO       
      PART-1-1.9729       0.00706219          14.3756          153.699       NO       
      PART-1-1.9742        0.0162727          16.8891          152.271       NO       
      PART-1-1.9785      0.000484896          11.7316          164.353       NO       
      PART-1-1.9875       0.00909217          15.0484          152.357       NO       
      PART-1-1.9892        0.0143978          20.3525          146.683       NO       
      PART-1-1.9925       0.00988722          14.3996          154.743       NO       
      PART-1-1.9935       0.00139081          11.8797          155.558       NO       
      PART-1-1.9948       0.00922973          21.5699          154.653       NO       
      PART-1-1.9967       0.00799268          19.3091          150.472       NO       
      PART-1-1.9996        0.0860657          9.68481          160.308       NO       
     PART-1-1.10008        0.0106944          19.9098          148.663       NO       
     PART-1-1.10031       0.00770401           19.789            156.5       NO       
     PART-1-1.10032       0.00766608          13.2538          154.684       NO       
     PART-1-1.10038         0.019192          17.1685          151.861       NO       
     PART-1-1.10048       0.00326051          10.8677          160.884       NO       
     PART-1-1.10050      0.000615001           7.2512          168.853       NO       
     PART-1-1.10051       0.00327906            15.57          160.956       NO       
     PART-1-1.10075       0.00330248           18.009          159.568       NO       
     PART-1-1.10136        0.0564624          9.17423          161.298       NO       
     PART-1-1.10143       0.00132623          16.1554          162.395       NO       
     PART-1-1.10172       0.00741904          13.6523           155.07       NO       
     PART-1-1.10173      0.000225788           9.7433          165.541       NO       
     PART-1-1.10197        0.0141813          23.4213          154.182       NO       
     PART-1-1.10201        0.0127146          21.1632          146.882       NO       
     PART-1-1.10226       0.00138603          11.7742          161.584       NO       
     PART-1-1.10273         0.018602          18.8882          144.841       NO       
     PART-1-1.10307       0.00628196           28.566          157.291       NO       
     PART-1-1.10320        0.0117808          21.9352          150.414       NO       
     PART-1-1.10323      0.000261989          9.37087          161.992       NO       
     PART-1-1.10343       0.00683141          13.6741          151.269       NO       
     PART-1-1.10344       0.00225211          16.1206          157.805       NO       
     PART-1-1.10345       0.00574494          18.7525          157.713       NO       
     PART-1-1.10346       0.00738691          20.7088          155.741       NO       
     PART-1-1.10350        0.0106408          17.9748          153.709       NO       
     PART-1-1.10353        0.0152006          15.3903          148.834       NO       
     PART-1-1.10357         0.013365          23.2163          154.336       NO       
     PART-1-1.10358        0.0174134          19.2301          150.242       NO       
     PART-1-1.10365       0.00727172          18.5498          154.058       NO       
     PART-1-1.10397       0.00954712          10.7904          158.785       NO       
     PART-1-1.10403        0.0153119          18.8027          151.083       NO       
     PART-1-1.10467       0.00364033           17.488          160.266       NO       
     PART-1-1.10468        0.0024663          8.96156           166.02       NO       
     PART-1-1.10472        0.0114417          15.2805          151.437       NO       
     PART-1-1.10474        0.0115011          22.1589          153.533       NO       
     PART-1-1.10477        0.0111197          20.3507          148.111       NO       
     PART-1-1.10492        0.0167027          20.7141          145.365       NO       
     PART-1-1.10524         0.011866          12.1989          156.694       NO       
     PART-1-1.10552        0.0106108           15.323          139.802       NO       
     PART-1-1.10553        0.0169524           21.172          149.484       NO       
     PART-1-1.10590      0.000841694          4.71296           172.63       NO       
     PART-1-1.10603        0.0185668          18.9288          150.184       NO       
     PART-1-1.10632        0.0156025          27.1137            151.8       NO       
     PART-1-1.10639        0.0112188          13.1122          142.936       NO       
     PART-1-1.10647       0.00779514          19.5128          156.507       NO       
     PART-1-1.10665        0.0127458           20.583           147.18       NO       
     PART-1-1.10686        0.0122887           19.359          148.058       NO       
     PART-1-1.10704        0.0119766          20.8788          147.384       NO       
     PART-1-1.10711        0.0148546          15.9375          147.712       NO       
     PART-1-1.10714       0.00347399          11.7129          157.628       NO       
     PART-1-1.10715       0.00349248           17.297          160.253       NO       
     PART-1-1.10716       0.00123208          12.6882          162.656       NO       
     PART-1-1.10719       0.00364439          17.3472          159.546       NO       
     PART-1-1.10741       0.00551106          10.3688          163.791       NO       
     PART-1-1.10749        0.0144926          20.6295          146.358       NO       
     PART-1-1.10751       0.00722881          17.9711          154.385       NO       
     PART-1-1.10781        0.0140289          18.3409          152.184       NO       
     PART-1-1.10853        0.0133851          23.3805          153.968       NO       
     PART-1-1.10866        0.0164226          19.6285          156.292       NO       
     PART-1-1.10907       0.00597651          14.8278          156.216       NO       
     PART-1-1.10933        0.0123077          20.9085          150.341       NO       
     PART-1-1.10943       0.00878063          14.3688          150.236       NO       
     PART-1-1.10945       0.00283543          16.6253          156.609       NO       
     PART-1-1.10946       0.00742787          13.8566          154.504       NO       
     PART-1-1.10948       0.00288127          12.3319          155.421       NO       
     PART-1-1.10970       0.00643948          13.1465          155.272       NO       
     PART-1-1.10972       0.00223126          14.2476          160.177       NO       
     PART-1-1.11033       0.00142801          11.6169          160.637       NO       
     PART-1-1.11064      0.000687636          10.7185          158.528       NO       
     PART-1-1.11065       0.00031931          12.4485          165.017       NO       
     PART-1-1.11066        0.0108631          14.9834          149.067       NO       
     PART-1-1.11067      0.000580385          14.1889           165.17       NO       
     PART-1-1.11075       0.00668149          14.7405          155.935       NO       
     PART-1-1.11087      0.000515461          10.0633          162.454       NO       
     PART-1-1.11112       0.00117381          11.6073          156.408       NO       
     PART-1-1.11140       0.00182845          15.0119           162.84       NO       
     PART-1-1.11145        0.0189863          22.1157          147.455       NO       
     PART-1-1.11164         0.076554          8.98814          158.704       NO       
     PART-1-1.11165       0.00812061          20.3443          155.705       NO       
     PART-1-1.11178        0.0178704          13.2628          159.065       NO       
     PART-1-1.11186      0.000895512          14.1239          163.156       NO       
     PART-1-1.11268       0.00682037          18.7092          154.264       NO       
     PART-1-1.11270        0.0155291          19.1347          151.066       NO       
     PART-1-1.11272         0.018598          21.0723          144.452       NO       
     PART-1-1.11285       0.00550426          13.3934          151.623       NO       
     PART-1-1.11286       0.00415579           17.619          159.323       NO       
     PART-1-1.11287       0.00413575          12.2972            157.5       NO       
     PART-1-1.11288       0.00273092          18.6675          160.335       NO       
     PART-1-1.11314       0.00911105          19.7461          149.544       NO       
     PART-1-1.11315       0.00652085          19.7731           153.87       NO       
     PART-1-1.11322       0.00855326          20.9036          155.237       NO       
     PART-1-1.11345       0.00496476          17.3974          154.197       NO       
     PART-1-1.11377       0.00069143          14.2202          165.549       NO       
     PART-1-1.11388        0.0169053          21.0233          145.069       NO       
     PART-1-1.11391       0.00250688          18.2934          160.514       NO       
     PART-1-1.11400      8.88298E-05          9.01923           169.26       NO       
     PART-1-1.11403        0.0011311            6.174          159.728       NO       
     PART-1-1.11407       0.00794834          20.8027          156.958       NO       
     PART-1-1.11415        0.0154714          14.2742           151.13       NO       
     PART-1-1.11428       0.00681016          19.8231           156.61       NO       
     PART-1-1.11436       0.00275256          18.3266          160.691       NO       
     PART-1-1.11441       0.00417519          17.7593          159.399       NO       
     PART-1-1.11442      0.000685128            10.63          161.377       NO       
     PART-1-1.11444       0.00891069          20.1151          149.468       NO       
     PART-1-1.11450      0.000609982           14.085           162.77       NO       
     PART-1-1.11458       0.00733206          17.6047          155.124       NO       
     PART-1-1.11477        0.0139856          20.1615          151.267       NO       
     PART-1-1.11493        0.0093286          17.4482          153.582       NO       
     PART-1-1.11542        0.0133868           23.545          154.027       NO       
     PART-1-1.11572       0.00585147          13.4705          159.106       NO       
[...]
     PART-1-1.30399        0.0187772          17.1916          141.894       NO       
     PART-1-1.30433        0.0231625          9.04973          161.224       NO       
     PART-1-1.30471        0.0168738          15.3669          148.547       NO       
     PART-1-1.30493        0.0151655          24.4507           152.88       NO       
     PART-1-1.30496         0.016433          20.9877          145.345       NO       
     PART-1-1.30498        0.0143734          14.8925           154.98       NO       
     PART-1-1.30519       0.00181373          16.9599          161.455       NO       
     PART-1-1.30520       0.00138224          16.4436          159.325       NO       
     PART-1-1.30521       0.00180748           12.617          157.736       NO       
     PART-1-1.30526       0.00723402          13.7296          154.353       NO       
     PART-1-1.30530       0.00726926          19.9673          156.418       NO       
     PART-1-1.30542         0.019058          16.5322          158.708       NO       
     PART-1-1.30543       0.00785069          17.2934          154.418       NO       
     PART-1-1.30591       0.00723879          15.5336          154.644       NO       
     PART-1-1.30659        0.0097754          14.9136          152.426       NO       
     PART-1-1.30661         0.010312          20.1649          148.618       NO       
     PART-1-1.30721      0.000130668          7.53254          164.807       NO       
     PART-1-1.30728      0.000100899          9.13067          168.896       NO       
     PART-1-1.30731        0.0147386          15.5613          151.569       NO       
     PART-1-1.30742       0.00145885          15.0297          163.208       NO       
     PART-1-1.30757       0.00019641          5.85927          170.914       NO       
     PART-1-1.30771         0.019552           22.518          153.257       NO       
     PART-1-1.30831         0.014886          15.6015          156.396       NO       
     PART-1-1.30874        0.0171667          24.3327          152.737       NO       
     PART-1-1.30897      0.000903264          15.4114          164.194       NO       
     PART-1-1.30917       0.00914605          20.1533          154.829       NO       
     PART-1-1.31023       0.00556064          14.2043          159.284       NO       
     PART-1-1.31052        0.0124134          22.4271          147.356       NO       
     PART-1-1.31077        0.0154055          21.1672          151.551       NO       
     PART-1-1.31085       0.00652973          13.5738          155.148       NO       
     PART-1-1.31088       0.00903933          19.2935           149.78       NO       
     PART-1-1.31104       0.00116957           12.839          161.694       NO       
     PART-1-1.31105       0.00144645          10.2758          158.014       NO       
     PART-1-1.31134        0.0178543          15.4074          149.631       NO       
     PART-1-1.31141       0.00259984          18.3725          160.559       NO       
     PART-1-1.31152        0.0123878          23.7206            153.8       NO       
     PART-1-1.31166       0.00691767          14.7657          153.375       NO       
     PART-1-1.31170       0.00679387          19.8323          151.027       NO       
     PART-1-1.31204        0.0185999          23.8635          146.431       NO       
     PART-1-1.31247       0.00688261          19.3624          153.874       NO       
     PART-1-1.31252        0.0170536            19.13          150.558       NO       
     PART-1-1.31257        0.0191052          25.8936          151.519       NO       
     PART-1-1.31259        0.0071784          17.5689          158.116       NO       
     PART-1-1.31300       0.00617703          12.9487          157.719       NO       
     PART-1-1.31334        0.0071965          17.7536          153.531       NO       
     PART-1-1.31345       0.00359765          18.2801          158.954       NO       
     PART-1-1.31355       0.00220437          15.6975          162.178       NO       
     PART-1-1.31374       0.00678815          7.21338          168.157       NO       
     PART-1-1.31375        0.0144748          19.8921          146.234       NO       
     PART-1-1.31400         0.014148          25.6712           151.41       NO       
     PART-1-1.31420       0.00181242          15.4102          160.545       NO       
     PART-1-1.31459        0.0141775          11.5592          162.038       NO       
     PART-1-1.31522        0.0138487          24.2774          153.121       NO       
     PART-1-1.31549        0.0147443          21.4031          148.956       NO       
     PART-1-1.31582        0.0141322          12.6674          160.118       NO       
     PART-1-1.31590       0.00762735          17.3533           154.54       NO       
     PART-1-1.31598       0.00721962          20.0846          156.361       NO       
     PART-1-1.31646       0.00305839          18.0801          160.088       NO       
     PART-1-1.31682        0.0177879          10.7852          158.231       NO       
     PART-1-1.31732        0.0048209          6.27051          168.528       NO       
     PART-1-1.31735        0.0136787           16.018          149.408       NO       
     PART-1-1.31738        0.0100359          20.2931          148.809       NO       
     PART-1-1.31744       0.00748141          14.6731          148.337       NO       
     PART-1-1.31758      0.000347538          13.2058          166.802       NO       
     PART-1-1.31760         0.013737          23.4518          152.244       NO       
     PART-1-1.31763       0.00184019          13.1975          159.497       NO       
     PART-1-1.31778        0.0153248          19.6384          156.614       NO       
     PART-1-1.31873       0.00645553          19.9892          156.597       NO       
     PART-1-1.31886      0.000799024          11.1742          162.955       NO       
     PART-1-1.31887       0.00493314          19.8566          157.676       NO       
     PART-1-1.31909       0.00100932            15.43          163.421       NO       
     PART-1-1.31916       0.00164239          13.5797          161.403       NO       
     PART-1-1.31918       0.00485073          18.5981          158.077       NO       
     PART-1-1.31947         0.018141           23.539          151.313       NO       
     PART-1-1.31954       0.00695186          19.2226          151.238       NO       
     PART-1-1.31972       0.00744065          15.1545           155.35       NO       
     PART-1-1.31980      0.000781249          13.9369          163.929       NO       
     PART-1-1.31986      8.51676E-05          9.78974          169.726       NO       
     PART-1-1.32051       0.00642717          8.78259          166.307       NO       
     PART-1-1.32066        0.0128518          22.6154          147.005       NO       
     PART-1-1.32096       0.00113159          13.1041          161.635       NO       
     PART-1-1.32105       0.00164387          11.1439          164.258       NO       
     PART-1-1.32133      0.000577918          12.9715          164.645       NO       
     PART-1-1.32144        0.0079682          15.2823          154.806       NO       
     PART-1-1.32146       0.00338093          12.9882          156.531       NO       
     PART-1-1.32159       0.00167671          14.4697          161.556       NO       
     PART-1-1.32182        0.0186759          20.4502          153.884       NO       
     PART-1-1.32211         0.121976          8.81881          159.199       NO       
     PART-1-1.32229        0.0148022          15.8576          151.142       NO       
     PART-1-1.32332       0.00669577          18.4822          157.985       NO       
     PART-1-1.32350        0.0175341          23.0728          153.722       NO       
     PART-1-1.32423      0.000742136          13.7243          163.455       NO       
     PART-1-1.32425       0.00314168          17.3526          160.543       NO       
     PART-1-1.32429        0.0272201           8.4823          158.679       NO       
     PART-1-1.32475        0.0411203          7.90924          160.517       NO       
     PART-1-1.32477         0.138031          8.05214          158.146       NO       
     PART-1-1.32551         0.010633          20.6143          155.672       NO       
     PART-1-1.32564       0.00611679          27.6087          147.269       NO       
     PART-1-1.32726           0.1203          8.83055          163.391       NO       
     PART-1-1.32735        0.0066552          14.3209          158.706       NO       
     PART-1-1.32739       0.00667018          14.3249            158.7       NO       
     PART-1-1.32767       0.00672332          18.4994          157.971       NO       
     PART-1-1.32821       0.00841716          21.3877          156.728       NO       
     PART-1-1.32823        0.0173121          10.8326           156.75       NO       
     PART-1-1.32824        0.0106439          9.94636            156.5       NO       
     PART-1-1.32861        0.0226852          7.65518          160.683       NO       
     PART-1-1.32863        0.0884592          7.83239          160.701       NO       
     PART-1-1.32949       0.00971574          14.8417           152.99       NO       
     PART-1-1.32950        0.0197404          17.8999          147.071       NO       
     PART-1-1.33054       0.00667281          18.4781             158.       NO       
     PART-1-1.33088        0.0133244          14.7693          142.986       NO       
     PART-1-1.33160       0.00420956          18.1197          159.632       NO       
     PART-1-1.33163        0.0124085          9.03734           157.79       NO       
     PART-1-1.33179        0.0105019          12.5576          154.971       NO       
     PART-1-1.33181        0.0154293           19.294          152.114       NO       
     PART-1-1.33183       0.00779569          18.9446          157.287       NO       
     PART-1-1.33225        0.0519389          7.63895          161.427       NO       
     PART-1-1.33227         0.164489          8.49234          156.614       NO       
     PART-1-1.33235       0.00785392          16.1478          158.443       NO       
     PART-1-1.33237       0.00717159          21.4678          157.621       NO       
     PART-1-1.33259       0.00779448          18.9438          157.289       NO       
     PART-1-1.33269         0.011005          11.9392          141.848       NO       
     PART-1-1.33295        0.0103939          15.3149          153.318       NO       
     PART-1-1.33338       0.00757812          18.8596          157.415       NO       
     PART-1-1.33371        0.0031644          17.3262          160.581       NO       
     PART-1-1.33374        0.0279631          8.58552          158.559       NO       
     PART-1-1.33424       0.00779293          18.9436           157.29       NO       
     PART-1-1.33436        0.0186443          21.3176          154.176       NO       
     PART-1-1.33446        0.0111274          23.8909          154.842       NO       
     PART-1-1.33452       0.00209647          14.1068          165.057       NO       
     PART-1-1.33470       0.00144226          13.0762          158.379       NO       
     PART-1-1.33551       0.00369328          23.7977           156.46       NO       
     PART-1-1.33555       0.00496526          17.1463          155.518       NO       
     PART-1-1.33611       0.00617902          14.3351          159.005       NO       
     PART-1-1.33631       0.00555988          13.4837          158.899       NO       
     PART-1-1.33663        0.0147467          16.7985          154.215       NO       
     PART-1-1.33685        0.0116272          23.3542          154.001       NO       
     PART-1-1.33686       0.00545132          15.3713          156.242       NO       
     PART-1-1.33710      6.75854E-05          8.42599          172.224       NO       
     PART-1-1.33714       0.00729949          9.20321          165.708       NO       
     PART-1-1.33725        0.0311049          8.58741           165.17       NO       
     PART-1-1.33726        0.0113607            18.11          157.761       NO       
     PART-1-1.33771        0.0732873          9.82212          144.008       NO       
     PART-1-1.33785      5.81359E-05           5.0161          173.476       NO       
     PART-1-1.33786      0.000327452          5.74118          167.295       NO       
     PART-1-1.33787       0.00142432          12.5328          168.131       NO       
     PART-1-1.33790        0.0348829          6.52203          169.298       NO       
     PART-1-1.33905       0.00438681          12.5976          159.488       NO       
     PART-1-1.33968       0.00301973          15.6729          158.175       NO       
     PART-1-1.33976       0.00555601          13.4796          158.903       NO       
     PART-1-1.34042        0.0147413          23.2466          144.165       NO       
     PART-1-1.34079         0.014803          15.8574          151.143       NO       
     PART-1-1.34097        0.0055514          13.4744          158.909       NO       
     PART-1-1.34142        0.0147729          15.8512          151.155       NO       
     PART-1-1.34170       0.00734661          13.9859          154.512       NO       
     PART-1-1.34196      0.000156713           4.0505          173.763       NO       
     PART-1-1.34197      0.000481486          9.84097          168.835       NO       
     PART-1-1.34198      0.000478597          5.86951          167.467       NO       
     PART-1-1.34214        0.0553785          9.47415          150.318       NO       
     PART-1-1.34261        0.0147922          15.8518           151.15       NO       
     PART-1-1.34279       0.00436257          12.8151           158.73       NO       
     PART-1-1.34338        0.0113589          11.4812          152.422       NO       
     PART-1-1.34349       0.00432694          11.1539          160.112       NO       
     PART-1-1.34407        0.0055361            13.47           158.92       NO       
     PART-1-1.34445       0.00353185          11.7471          162.881       NO       
     PART-1-1.34446        0.0068396          23.4267          155.648       NO       
     PART-1-1.34487         0.018295          31.3331          148.166       NO       
     PART-1-1.34517       0.00446957          12.7527          159.263       NO       
     PART-1-1.34579        0.0182185          24.1869          154.021       NO       
     PART-1-1.34586        0.0485671          7.15975          161.612       NO       
     PART-1-1.34588         0.153317          7.92406          159.107       NO       
     PART-1-1.34606       0.00303807          10.7534          161.294       NO       
     PART-1-1.34612       0.00885033          25.4256          117.191       NO       
     PART-1-1.34613       0.00723877          17.0917          160.839       NO       
     PART-1-1.34723        0.0126243          17.1825          146.736       NO       
     PART-1-1.34724        0.0153925          18.2833          155.353       NO       
     PART-1-1.34759        0.0016467          5.95487          168.067       NO       
     PART-1-1.34778       2.5087E-05          3.78172          173.193       NO       
     PART-1-1.34783         0.121078          9.57504          141.762       NO       
     PART-1-1.34785      2.51987E-05          5.33674          174.043       NO       
     PART-1-1.34794      8.81358E-07          1.43723          177.772       NO       
     PART-1-1.34827       0.00690917          13.0805          146.426       NO       
     PART-1-1.34858         0.103098          8.11184          148.589       NO       
     PART-1-1.34860         0.018503          12.5026          162.525       NO       
     PART-1-1.34871         0.117752          8.62615          146.816       NO       
     PART-1-1.34873        0.0193634          12.9446           162.04       NO       
     PART-1-1.34880       0.00688061          13.5766          154.976       NO       
     PART-1-1.35259        0.0171942          19.3121          127.527       NO       
     PART-1-1.35282        0.0185819          16.2652          159.017       NO       
     PART-1-1.35290         0.118077          9.34013          138.286       NO       
     PART-1-1.35292        0.0120166          14.8232          162.268       NO       
     PART-1-1.35300          0.01126           7.9173          157.599       NO       
  
  
  *Step, name=Step-1, nlgeom=NO, perturbation
  *output, field, variable=PRESELECT
  *Step, name=Step-1, nlgeom=NO, perturbation

 ***ERROR: NODE SET ASSEMBLY_BOTTOM_SET_PIN HAS NOT BEEN DEFINED

 ***ERROR: NODE SET ASSEMBLY_BOTTOM_SET_PIN HAS NOT BEEN DEFINED

 ***ERROR: NODE SET ASSEMBLY_TOP_SET_PIN HAS NOT BEEN DEFINED

 ***ERROR: NODE SET ASSEMBLY_TOP_SET_PIN HAS NOT BEEN DEFINED

 ***ERROR: NODE SET ASSEMBLY_TOP_SET_PIN HAS NOT BEEN DEFINED

 ***ERROR: NODE SET ASSEMBLY_TOP_SET_PIN HAS NOT BEEN DEFINED
  *Step, name=Step-1, nlgeom=NO, perturbation
  *buckle
  *boundary, op=NEW, loadcase=1
  *boundary, op=NEW, loadcase=2
  *boundary, op=NEW, loadcase=1
  *boundary, op=NEW, loadcase=2
  *dsload

 ***ERROR: THE SURFACE ASSEMBLY_TOP_SURFACE HAS NOT BEEN LOCATED
 LINE IMAGE: ASSEMBLY_TOP_SURFACE, P, 1.
  *output, field, variable=PRESELECT
  *endstep
  *Step, name=Step-1, nlgeom=NO, perturbation
  *buckle
  *buckle
  *boundary, op=NEW, loadcase=1

 ***ERROR: A BOUNDARY CONDITION HAS BEEN SPECIFIED ON NODE SET 
           ASSEMBLY_BOTTOM_SET_PIN BUT THIS NODE SET IS NOT ACTIVE IN THE MODEL
  *boundary, op=NEW, loadcase=2

 ***ERROR: A BOUNDARY CONDITION HAS BEEN SPECIFIED ON NODE SET 
           ASSEMBLY_BOTTOM_SET_PIN BUT THIS NODE SET IS NOT ACTIVE IN THE MODEL
  *boundary, op=NEW, loadcase=1

 ***ERROR: A BOUNDARY CONDITION HAS BEEN SPECIFIED ON NODE SET 
           ASSEMBLY_TOP_SET_PIN BUT THIS NODE SET IS NOT ACTIVE IN THE MODEL

 ***ERROR: A BOUNDARY CONDITION HAS BEEN SPECIFIED ON NODE SET 
           ASSEMBLY_TOP_SET_PIN BUT THIS NODE SET IS NOT ACTIVE IN THE MODEL
  *boundary, op=NEW, loadcase=2

 ***ERROR: A BOUNDARY CONDITION HAS BEEN SPECIFIED ON NODE SET 
           ASSEMBLY_TOP_SET_PIN BUT THIS NODE SET IS NOT ACTIVE IN THE MODEL

 ***ERROR: A BOUNDARY CONDITION HAS BEEN SPECIFIED ON NODE SET 
           ASSEMBLY_TOP_SET_PIN BUT THIS NODE SET IS NOT ACTIVE IN THE MODEL
  *endstep

 ***ERROR: NODE SET ASSEMBLY_BOTTOM_SET_PIN HAS NOT BEEN DEFINED

 ***ERROR: NODE SET ASSEMBLY_BOTTOM_SET_PIN HAS NOT BEEN DEFINED

 ***ERROR: NODE SET ASSEMBLY_TOP_SET_PIN HAS NOT BEEN DEFINED

 ***ERROR: NODE SET ASSEMBLY_TOP_SET_PIN HAS NOT BEEN DEFINED

 ***ERROR: NODE SET ASSEMBLY_TOP_SET_PIN HAS NOT BEEN DEFINED

 ***ERROR: NODE SET ASSEMBLY_TOP_SET_PIN HAS NOT BEEN DEFINED



                            P R O B L E M   S I Z E


          NUMBER OF ELEMENTS IS                                 35307
          NUMBER OF ELEMENTS DEFINED BY THE USER AND *TIE       35305
          NUMBER OF NODES IS                                    14646
          NUMBER OF NODES DEFINED BY THE USER                   14646
          TOTAL NUMBER OF VARIABLES IN THE MODEL                43944
          (DEGREES OF FREEDOM PLUS MAX NO. OF ANY LAGRANGE MULTIPLIER
           VARIABLES. INCLUDE *PRINT,SOLVE=YES TO GET THE ACTUAL NUMBER.)





          THE PROGRAM HAS DISCOVERED    40 FATAL ERRORS

               ** EXECUTION IS TERMINATED **

 ***ERROR: Failed to locate set "ASSEMBLY_TOP_SET_PIN".



                              END OF USER INPUT PROCESSING



     JOB TIME SUMMARY
       USER TIME (SEC)      =   1.5000    
       SYSTEM TIME (SEC)    =  0.50000    
       TOTAL CPU TIME (SEC) =   2.0000    
       WALLCLOCK TIME (SEC) =          3
