1

   Abaqus 3DEXPERIENCE R2019x                                  Date 01-May-2020   Time 21:05:17
   For use by TEXAS A_M UNIVERSITY SYSTEM under license from Dassault Systemes or its subsidiary.



                         The Abaqus Software is a product of:

                           Dassault Systemes SIMULIA Corp.
                           1301 Atwood Avenue, Suite 101W
                              Johnston, RI 02919, USA
 


                   The Abaqus Software is available only under license
                   from Dassault Systemes or its subsidiary and may be
                   used or reproduced only in accordance with the terms
                   of such license.
 
                          On machine AERO-MJ09CBE4 
                          you are authorized to run
                          Abaqus/Standard until 11-Jul-2021

                          Your site id is: 200000000002185 


 
                    For assistance or any other information you may
                    obtain contact information for your local office
                    from the world wide web at:

                      http://www.3ds.com/products/simulia/locations/

 
                * * * * * * * * * * * * * * * * * * * * * * * * * * * * * * 
                *                                                         * 
                *                   *****************                     * 
                *                   *  N O T I C E  *                     * 
                *                   *****************                     * 
                *                                                         * 
                *                                                         * 
                *               Abaqus 3DEXPERIENCE R2019x                * 
                *                                                         * 
                *          BUILD ID: 2018_09_24-13.41.51 157541           * 
                *                                                         * 
                *                                                         * 
                *  Please make sure you are using                         * 
                *  release 3DEXPERIENCE R2019x manuals                    * 
                *  plus the notes accompanying this release.              * 
                *                                                         * 
                *                                                         * 
                *                                                         * 
                *                                                         * 
                *                                                         * 
                *   This program may not be used for commercial purposes  * 
                *           without payment of a commercial fee.          * 
                *                                                         * 
                * * * * * * * * * * * * * * * * * * * * * * * * * * * * * * 


 



     PROCESSING PART, INSTANCE, AND ASSEMBLY INFORMATION
   *******************************************************


 ***ERROR: in keyword *RIGIDBODY, file "Buckling_job_1_2.inp", line 28: Unknown 
           assembly set TOP_SET_PIN
 ***NOTE: DUE TO AN INPUT ERROR THE ANALYSIS PRE-PROCESSOR HAS BEEN UNABLE TO 
          INTERPRET SOME DATA.  SUBSEQUENT ERRORS MAY BE CAUSED BY THIS OMISSION

 ***ERROR: in keyword *RIGIDBODY, file "Buckling_job_1_2.inp", line 30: Unknown 
           assembly set BOTTOM_SET_PIN

 ***ERROR: in keyword *BOUNDARY, file "Buckling_job_1_2.inp", line 52: Unknown 
           assembly node set BOTTOM_SET_PIN

 ***ERROR: in keyword *BOUNDARY, file "Buckling_job_1_2.inp", line 54: Unknown 
           assembly node set BOTTOM_SET_PIN

 ***ERROR: in keyword *BOUNDARY, file "Buckling_job_1_2.inp", line 57: Unknown 
           assembly node set TOP_SET_PIN

 ***ERROR: in keyword *BOUNDARY, file "Buckling_job_1_2.inp", line 57: Unknown 
           assembly node set TOP_SET_PIN

 ***ERROR: in keyword *BOUNDARY, file "Buckling_job_1_2.inp", line 60: Unknown 
           assembly node set TOP_SET_PIN

 ***ERROR: in keyword *BOUNDARY, file "Buckling_job_1_2.inp", line 60: Unknown 
           assembly node set TOP_SET_PIN

     END PROCESSING PART, INSTANCE, AND ASSEMBLY INFORMATION
   ***********************************************************




     OPTIONS BEING PROCESSED
   ***************************


  *Heading
  *Node
  *Nset, nset=ASSEMBLY__PICKEDSET19
  *Nset, nset=ASSEMBLY__PICKEDSET21

 ***WARNING: BUCKLE OPTION IS NOT SUPPORTED FOR ELEMENT LOOP PARALLELIZATION. 
             IF YOU HAVE SPECIFIED ELEMENT LOOP PARALLELIZATION, IT WILL BE 
             TURNED OFF FOR THIS ANALYSIS.
 LINE IMAGE: *buckle
  *material, name=FIBRE_MATERIAL
  *elastic
  *material, name=MATRIX_MATERIAL
  *elastic
  *rigidbody, refnode=ASSEMBLY__PICKEDSET19, pinnset=ASSEMBLY_TOP_SET_PIN
  *rigidbody, refnode=ASSEMBLY__PICKEDSET21, pinnset=ASSEMBLY_BOTTOM_SET_PIN
  *rigidbody, refnode=ASSEMBLY__PICKEDSET19, pinnset=ASSEMBLY_TOP_SET_PIN
  *rigidbody, refnode=ASSEMBLY__PICKEDSET21, pinnset=ASSEMBLY_BOTTOM_SET_PIN
  *rigidbody, refnode=ASSEMBLY__PICKEDSET19, pinnset=ASSEMBLY_TOP_SET_PIN
  *rigidbody, refnode=ASSEMBLY__PICKEDSET21, pinnset=ASSEMBLY_BOTTOM_SET_PIN
  *rigidbody, refnode=ASSEMBLY__PICKEDSET19, pinnset=ASSEMBLY_TOP_SET_PIN

 ***ERROR: NODE SET ASSEMBLY_TOP_SET_PIN HAS NOT BEEN DEFINED
  *rigidbody, refnode=ASSEMBLY__PICKEDSET21, pinnset=ASSEMBLY_BOTTOM_SET_PIN

 ***ERROR: NODE SET ASSEMBLY_BOTTOM_SET_PIN HAS NOT BEEN DEFINED
  *rigidbody, refnode=ASSEMBLY__PICKEDSET19, pinnset=ASSEMBLY_TOP_SET_PIN

 ***ERROR: NODE SET ASSEMBLY_TOP_SET_PIN HAS NOT BEEN DEFINED

 ***ERROR: UNABLE TO LOCATE NODE SET ASSEMBLY_TOP_SET_PIN. THE NODE SET MUST 
           HAVE BEEN PREVIOUSLY DEFINED. NODES IN THIS NODE SET WILL NOT BE 
           PART OF RIGID BODY
 LINE IMAGE: *rigidbody, refnode=ASSEMBLY__PICKEDSET19, 
             pinnset=ASSEMBLY_TOP_SET_PIN
  *rigidbody, refnode=ASSEMBLY__PICKEDSET21, pinnset=ASSEMBLY_BOTTOM_SET_PIN

 ***ERROR: NODE SET ASSEMBLY_BOTTOM_SET_PIN HAS NOT BEEN DEFINED

 ***ERROR: UNABLE TO LOCATE NODE SET ASSEMBLY_BOTTOM_SET_PIN. THE NODE SET MUST 
           HAVE BEEN PREVIOUSLY DEFINED. NODES IN THIS NODE SET WILL NOT BE 
           PART OF RIGID BODY
 LINE IMAGE: *rigidbody, refnode=ASSEMBLY__PICKEDSET21, 
             pinnset=ASSEMBLY_BOTTOM_SET_PIN

 ***ERROR: SURFACE DEFINITION ASSEMBLY_TOP_SURFACE NOT FOUND.
  *rigidbody, refnode=ASSEMBLY__PICKEDSET19, pinnset=ASSEMBLY_TOP_SET_PIN
  *rigidbody, refnode=ASSEMBLY__PICKEDSET21, pinnset=ASSEMBLY_BOTTOM_SET_PIN
  *rigidbody, refnode=ASSEMBLY__PICKEDSET19, pinnset=ASSEMBLY_TOP_SET_PIN

 ***ERROR: NODE SET ASSEMBLY_TOP_SET_PIN HAS NOT BEEN DEFINED

 ***ERROR: UNABLE TO LOCATE NODE SET ASSEMBLY_TOP_SET_PIN. THE NODE SET MUST 
           HAVE BEEN PREVIOUSLY DEFINED. NODES IN THIS NODE SET WILL NOT BE 
           PART OF RIGID BODY
 LINE IMAGE: *rigidbody, refnode=ASSEMBLY__PICKEDSET19, 
             pinnset=ASSEMBLY_TOP_SET_PIN
  *rigidbody, refnode=ASSEMBLY__PICKEDSET21, pinnset=ASSEMBLY_BOTTOM_SET_PIN

 ***ERROR: NODE SET ASSEMBLY_BOTTOM_SET_PIN HAS NOT BEEN DEFINED

 ***ERROR: UNABLE TO LOCATE NODE SET ASSEMBLY_BOTTOM_SET_PIN. THE NODE SET MUST 
           HAVE BEEN PREVIOUSLY DEFINED. NODES IN THIS NODE SET WILL NOT BE 
           PART OF RIGID BODY
 LINE IMAGE: *rigidbody, refnode=ASSEMBLY__PICKEDSET21, 
             pinnset=ASSEMBLY_BOTTOM_SET_PIN
  *boundary, op=NEW, loadcase=1
  *boundary, op=NEW, loadcase=2
  *boundary, op=NEW, loadcase=1
  *boundary, op=NEW, loadcase=2
  *boundary, op=NEW, loadcase=1
  *boundary, op=NEW, loadcase=2
  *boundary, op=NEW, loadcase=1
  *boundary, op=NEW, loadcase=2
  *rigidbody, refnode=ASSEMBLY__PICKEDSET19, pinnset=ASSEMBLY_TOP_SET_PIN
  *rigidbody, refnode=ASSEMBLY__PICKEDSET21, pinnset=ASSEMBLY_BOTTOM_SET_PIN
  *output, field, variable=PRESELECT
  *output, field, variable=PRESELECT
  *output, field, variable=PRESELECT

 ***ERROR: NODE SET ASSEMBLY_TOP_SET_PIN HAS NOT BEEN DEFINED

 ***ERROR: NODE SET ASSEMBLY_BOTTOM_SET_PIN HAS NOT BEEN DEFINED
  *Step, name=Step-1, nlgeom=NO, perturbation
  *output, field, variable=PRESELECT
  *Step, name=Step-1, nlgeom=NO, perturbation

 ***ERROR: NODE SET ASSEMBLY_BOTTOM_SET_PIN HAS NOT BEEN DEFINED

 ***ERROR: NODE SET ASSEMBLY_BOTTOM_SET_PIN HAS NOT BEEN DEFINED

 ***ERROR: NODE SET ASSEMBLY_TOP_SET_PIN HAS NOT BEEN DEFINED

 ***ERROR: NODE SET ASSEMBLY_TOP_SET_PIN HAS NOT BEEN DEFINED

 ***ERROR: NODE SET ASSEMBLY_TOP_SET_PIN HAS NOT BEEN DEFINED

 ***ERROR: NODE SET ASSEMBLY_TOP_SET_PIN HAS NOT BEEN DEFINED
  *Step, name=Step-1, nlgeom=NO, perturbation
  *buckle
  *boundary, op=NEW, loadcase=1
  *boundary, op=NEW, loadcase=2
  *boundary, op=NEW, loadcase=1
  *boundary, op=NEW, loadcase=2
  *dsload

 ***ERROR: THE SURFACE ASSEMBLY_TOP_SURFACE HAS NOT BEEN LOCATED
 LINE IMAGE: ASSEMBLY_TOP_SURFACE, P, 1.
  *output, field, variable=PRESELECT
  *endstep
  *Step, name=Step-1, nlgeom=NO, perturbation
  *buckle
  *buckle
  *boundary, op=NEW, loadcase=1

 ***ERROR: A BOUNDARY CONDITION HAS BEEN SPECIFIED ON NODE SET 
           ASSEMBLY_BOTTOM_SET_PIN BUT THIS NODE SET IS NOT ACTIVE IN THE MODEL
  *boundary, op=NEW, loadcase=2

 ***ERROR: A BOUNDARY CONDITION HAS BEEN SPECIFIED ON NODE SET 
           ASSEMBLY_BOTTOM_SET_PIN BUT THIS NODE SET IS NOT ACTIVE IN THE MODEL
  *boundary, op=NEW, loadcase=1

 ***ERROR: A BOUNDARY CONDITION HAS BEEN SPECIFIED ON NODE SET 
           ASSEMBLY_TOP_SET_PIN BUT THIS NODE SET IS NOT ACTIVE IN THE MODEL

 ***ERROR: A BOUNDARY CONDITION HAS BEEN SPECIFIED ON NODE SET 
           ASSEMBLY_TOP_SET_PIN BUT THIS NODE SET IS NOT ACTIVE IN THE MODEL
  *boundary, op=NEW, loadcase=2

 ***ERROR: A BOUNDARY CONDITION HAS BEEN SPECIFIED ON NODE SET 
           ASSEMBLY_TOP_SET_PIN BUT THIS NODE SET IS NOT ACTIVE IN THE MODEL

 ***ERROR: A BOUNDARY CONDITION HAS BEEN SPECIFIED ON NODE SET 
           ASSEMBLY_TOP_SET_PIN BUT THIS NODE SET IS NOT ACTIVE IN THE MODEL
  *endstep

 ***ERROR: NODE SET ASSEMBLY_BOTTOM_SET_PIN HAS NOT BEEN DEFINED

 ***ERROR: NODE SET ASSEMBLY_BOTTOM_SET_PIN HAS NOT BEEN DEFINED

 ***ERROR: NODE SET ASSEMBLY_TOP_SET_PIN HAS NOT BEEN DEFINED

 ***ERROR: NODE SET ASSEMBLY_TOP_SET_PIN HAS NOT BEEN DEFINED

 ***ERROR: NODE SET ASSEMBLY_TOP_SET_PIN HAS NOT BEEN DEFINED

 ***ERROR: NODE SET ASSEMBLY_TOP_SET_PIN HAS NOT BEEN DEFINED



                            P R O B L E M   S I Z E


          NUMBER OF ELEMENTS IS                                     2
          NUMBER OF ELEMENTS DEFINED BY THE USER AND *TIE           0
          NUMBER OF NODES IS                                        2
          NUMBER OF NODES DEFINED BY THE USER                       2
          TOTAL NUMBER OF VARIABLES IN THE MODEL                   12
          (DEGREES OF FREEDOM PLUS MAX NO. OF ANY LAGRANGE MULTIPLIER
           VARIABLES. INCLUDE *PRINT,SOLVE=YES TO GET THE ACTUAL NUMBER.)





          THE PROGRAM HAS DISCOVERED    40 FATAL ERRORS

               ** EXECUTION IS TERMINATED **

 ***ERROR: Failed to locate set "ASSEMBLY_TOP_SET_PIN".



                              END OF USER INPUT PROCESSING



     JOB TIME SUMMARY
       USER TIME (SEC)      =  0.30000    
       SYSTEM TIME (SEC)    =  0.10000    
       TOTAL CPU TIME (SEC) =  0.40000    
       WALLCLOCK TIME (SEC) =          1
