*Heading
** Job name: Buckling_job_6_1 Model name: Model-1
** Generated by: Abaqus/CAE 2019
*Preprint, echo=NO, model=NO, history=NO, contact=NO
**
** PARTS
**
*Part, name=Part-1
*Node
      1,   75.0954056,        1524.,   126.451935
      2,       -1524.,    778.32959,   126.451935
      3,   75.0857239,        1524.,   127.553345
      4,   73.6514511,        1524.,   127.893066
      5,   72.1815109,        1524.,   127.733948
      6,   71.3582764,        1524.,    126.76226
      7,   72.2997971,        1524.,   126.233147
      8,   73.3910065,        1524.,   126.101135
      9,       -1524.,   779.683044,    126.26268
     10,       -1524.,   779.901855,   127.548065
     11,       -1524.,   778.548401,    127.73732
     12,  -1517.47717,   781.172607,    127.10762
     13,  -1514.39392,   782.607239,   127.080795
     14,   -1511.2052,   784.094055,   127.079262
     15,   -1508.0061,   785.585815,   127.079262
     16,  -1504.80701,   787.077576,   127.079269
     17,  -1501.60791,   788.569336,   127.079269
     18,  -1498.40894,   790.061096,   127.079269
     19,  -1495.20984,   791.552856,   127.079262
     20,  -1492.01074,   793.044556,   127.079262
** ... 24396 like lines cut
*Element, type=C3D4
    1, 6686, 4288, 1098, 4287
    2, 6686,  642, 4289,  324
    3, 6686, 2475, 2934, 4284
    4, 6686, 4290,  324, 4289
    5, 6687, 5095, 5091, 5092
    6, 2135, 1214, 2591, 6687
    7, 6687, 5093, 5094, 5095
    8, 6687,  758, 3050,  208
    9, 6687, 5089, 3050, 2591
   10, 6687, 5090, 2135, 5091
   11, 6687, 5090, 5089, 2591
   12, 6687, 5090, 2591, 2135
   13, 6688, 3504,  986, 3503
   14, 6688, 3500, 3502, 3501
   15, 3503, 3500, 3502, 6688
   16, 6688, 1907, 1451, 2822
   17, 6688,  530,  986, 3504
   18, 6688, 3505,  530, 3504
   19, 6688, 3506, 3500, 2822
   20, 6688, 3500, 3506, 3505
** ... 61556 like lines cut
*Nset, nset=fibre_set1, generate
    1,  7587,     1
*Elset, elset=fibre_set1, generate
     1,  20952,      1
*Nset, nset=fibre_set2, generate
  7588,  17249,      1
*Elset, elset=fibre_set2, generate
 20953,  41689,      1
*Nset, nset=fibre_set5, generate
 17250,  24416,      1
*Elset, elset=fibre_set5, generate
 41690,  61576,      1
** Section: fibre_section
*Solid Section, elset=fibre_set1, material=fibre_material
,
** Section: fibre_section
*Solid Section, elset=fibre_set2, material=fibre_material
,
** Section: fibre_section
*Solid Section, elset=fibre_set5, material=fibre_material
,
*End Part
**  
**
** ASSEMBLY
**
*Assembly, name=Assembly
**  
*Instance, name=Part-1-1, part=Part-1
*End Instance
**  
*Node
      1,           0.,        1524.,         127.
*Node
      2,           0.,       -1524.,         127.
*Nset, nset=_PickedSet19, internal
 1,
*Nset, nset=_PickedSet21, internal
 2,
** Constraint: Constraint-1
*Rigid Body, ref node=_PickedSet19, pin nset=top_set_pin
** Constraint: Constraint-2
*Rigid Body, ref node=_PickedSet21, pin nset=bottom_set_pin
*End Assembly
** 
** MATERIALS
** 
*Material, name=fibre_material
*Elastic
121000., 0.34
*Material, name=matrix_material
*Elastic
 426.593, 0.29
** ----------------------------------------------------------------
** 
** STEP: Step-1
** 
*Step, name=Step-1, nlgeom=NO, perturbation
*Buckle
3, , 6, 300
** 
** BOUNDARY CONDITIONS
** 
** Name: BC-1 Type: Symmetry/Antisymmetry/Encastre
*Boundary, op=NEW, load case=1
bottom_set_pin, ENCASTRE
*Boundary, op=NEW, load case=2
bottom_set_pin, ENCASTRE
** Name: BC-2 Type: Displacement/Rotation
*Boundary, op=NEW, load case=1
top_set_pin, 1, 1
top_set_pin, 3, 3
*Boundary, op=NEW, load case=2
top_set_pin, 1, 1
top_set_pin, 3, 3
** 
** LOADS
** 
** Name: Load-1   Type: Pressure
*Dsload
top_surface, P, 1.
** 
** OUTPUT REQUESTS
** 
*Restart, write, frequency=0
** 
** FIELD OUTPUT: F-Output-1
** 
*Output, field, variable=PRESELECT
*End Step
