1

   Abaqus 3DEXPERIENCE R2019x                                  Date 01-May-2020   Time 19:15:26
   For use by TEXAS A_M UNIVERSITY SYSTEM under license from Dassault Systemes or its subsidiary.



                         The Abaqus Software is a product of:

                           Dassault Systemes SIMULIA Corp.
                           1301 Atwood Avenue, Suite 101W
                              Johnston, RI 02919, USA
 


                   The Abaqus Software is available only under license
                   from Dassault Systemes or its subsidiary and may be
                   used or reproduced only in accordance with the terms
                   of such license.
 
                          On machine AERO-MJ09CBE4 
                          you are authorized to run
                          Abaqus/Standard until 11-Jul-2021

                          Your site id is: 200000000002185 


 
                    For assistance or any other information you may
                    obtain contact information for your local office
                    from the world wide web at:

                      http://www.3ds.com/products/simulia/locations/

 
                * * * * * * * * * * * * * * * * * * * * * * * * * * * * * * 
                *                                                         * 
                *                   *****************                     * 
                *                   *  N O T I C E  *                     * 
                *                   *****************                     * 
                *                                                         * 
                *                                                         * 
                *               Abaqus 3DEXPERIENCE R2019x                * 
                *                                                         * 
                *          BUILD ID: 2018_09_24-13.41.51 157541           * 
                *                                                         * 
                *                                                         * 
                *  Please make sure you are using                         * 
                *  release 3DEXPERIENCE R2019x manuals                    * 
                *  plus the notes accompanying this release.              * 
                *                                                         * 
                *                                                         * 
                *                                                         * 
                *                                                         * 
                *                                                         * 
                *   This program may not be used for commercial purposes  * 
                *           without payment of a commercial fee.          * 
                *                                                         * 
                * * * * * * * * * * * * * * * * * * * * * * * * * * * * * * 


 



     PROCESSING PART, INSTANCE, AND ASSEMBLY INFORMATION
   *******************************************************


 ***ERROR: in keyword *RIGIDBODY, file "Buckling_job_7_3.inp", line 56454: 
           Unknown assembly set TOP_SET_PIN
 ***NOTE: DUE TO AN INPUT ERROR THE ANALYSIS PRE-PROCESSOR HAS BEEN UNABLE TO 
          INTERPRET SOME DATA.  SUBSEQUENT ERRORS MAY BE CAUSED BY THIS OMISSION

 ***ERROR: in keyword *RIGIDBODY, file "Buckling_job_7_3.inp", line 56456: 
           Unknown assembly set BOTTOM_SET_PIN

 ***ERROR: in keyword *BOUNDARY, file "Buckling_job_7_3.inp", line 56478: 
           Unknown assembly node set BOTTOM_SET_PIN

 ***ERROR: in keyword *BOUNDARY, file "Buckling_job_7_3.inp", line 56480: 
           Unknown assembly node set BOTTOM_SET_PIN

 ***ERROR: in keyword *BOUNDARY, file "Buckling_job_7_3.inp", line 56483: 
           Unknown assembly node set TOP_SET_PIN

 ***ERROR: in keyword *BOUNDARY, file "Buckling_job_7_3.inp", line 56483: 
           Unknown assembly node set TOP_SET_PIN

 ***ERROR: in keyword *BOUNDARY, file "Buckling_job_7_3.inp", line 56486: 
           Unknown assembly node set TOP_SET_PIN

 ***ERROR: in keyword *BOUNDARY, file "Buckling_job_7_3.inp", line 56486: 
           Unknown assembly node set TOP_SET_PIN

     END PROCESSING PART, INSTANCE, AND ASSEMBLY INFORMATION
   ***********************************************************




     OPTIONS BEING PROCESSED
   ***************************


  *Heading
  *Node
  *Element, type=C3D4
  *Nset, nset=ASSEMBLY_PART-1-1_FIBRE_SET4
  *Elset, elset=ASSEMBLY_PART-1-1_FIBRE_SET4
  *Node
  *Nset, nset=ASSEMBLY__PICKEDSET19
  *Nset, nset=ASSEMBLY__PICKEDSET21

 ***WARNING: BUCKLE OPTION IS NOT SUPPORTED FOR ELEMENT LOOP PARALLELIZATION. 
             IF YOU HAVE SPECIFIED ELEMENT LOOP PARALLELIZATION, IT WILL BE 
             TURNED OFF FOR THIS ANALYSIS.
 LINE IMAGE: *buckle
  *material, name=FIBRE_MATERIAL
  *elastic
  *material, name=MATRIX_MATERIAL
  *elastic
  *solidsection, elset=ASSEMBLY_PART-1-1_FIBRE_SET4, material=FIBRE_MATERIAL
  *solidsection, elset=ASSEMBLY_PART-1-1_FIBRE_SET4, material=FIBRE_MATERIAL
  *rigidbody, refnode=ASSEMBLY__PICKEDSET19, pinnset=ASSEMBLY_TOP_SET_PIN
  *rigidbody, refnode=ASSEMBLY__PICKEDSET21, pinnset=ASSEMBLY_BOTTOM_SET_PIN
  *rigidbody, refnode=ASSEMBLY__PICKEDSET19, pinnset=ASSEMBLY_TOP_SET_PIN
  *rigidbody, refnode=ASSEMBLY__PICKEDSET21, pinnset=ASSEMBLY_BOTTOM_SET_PIN
  *rigidbody, refnode=ASSEMBLY__PICKEDSET19, pinnset=ASSEMBLY_TOP_SET_PIN
  *rigidbody, refnode=ASSEMBLY__PICKEDSET21, pinnset=ASSEMBLY_BOTTOM_SET_PIN
  *rigidbody, refnode=ASSEMBLY__PICKEDSET19, pinnset=ASSEMBLY_TOP_SET_PIN

 ***ERROR: NODE SET ASSEMBLY_TOP_SET_PIN HAS NOT BEEN DEFINED
  *rigidbody, refnode=ASSEMBLY__PICKEDSET21, pinnset=ASSEMBLY_BOTTOM_SET_PIN

 ***ERROR: NODE SET ASSEMBLY_BOTTOM_SET_PIN HAS NOT BEEN DEFINED
  *rigidbody, refnode=ASSEMBLY__PICKEDSET19, pinnset=ASSEMBLY_TOP_SET_PIN

 ***ERROR: NODE SET ASSEMBLY_TOP_SET_PIN HAS NOT BEEN DEFINED

 ***ERROR: UNABLE TO LOCATE NODE SET ASSEMBLY_TOP_SET_PIN. THE NODE SET MUST 
           HAVE BEEN PREVIOUSLY DEFINED. NODES IN THIS NODE SET WILL NOT BE 
           PART OF RIGID BODY
 LINE IMAGE: *rigidbody, refnode=ASSEMBLY__PICKEDSET19, 
             pinnset=ASSEMBLY_TOP_SET_PIN
  *rigidbody, refnode=ASSEMBLY__PICKEDSET21, pinnset=ASSEMBLY_BOTTOM_SET_PIN

 ***ERROR: NODE SET ASSEMBLY_BOTTOM_SET_PIN HAS NOT BEEN DEFINED

 ***ERROR: UNABLE TO LOCATE NODE SET ASSEMBLY_BOTTOM_SET_PIN. THE NODE SET MUST 
           HAVE BEEN PREVIOUSLY DEFINED. NODES IN THIS NODE SET WILL NOT BE 
           PART OF RIGID BODY
 LINE IMAGE: *rigidbody, refnode=ASSEMBLY__PICKEDSET21, 
             pinnset=ASSEMBLY_BOTTOM_SET_PIN

 ***ERROR: SURFACE DEFINITION ASSEMBLY_TOP_SURFACE NOT FOUND.
  *rigidbody, refnode=ASSEMBLY__PICKEDSET19, pinnset=ASSEMBLY_TOP_SET_PIN
  *rigidbody, refnode=ASSEMBLY__PICKEDSET21, pinnset=ASSEMBLY_BOTTOM_SET_PIN
  *rigidbody, refnode=ASSEMBLY__PICKEDSET19, pinnset=ASSEMBLY_TOP_SET_PIN

 ***ERROR: NODE SET ASSEMBLY_TOP_SET_PIN HAS NOT BEEN DEFINED

 ***ERROR: UNABLE TO LOCATE NODE SET ASSEMBLY_TOP_SET_PIN. THE NODE SET MUST 
           HAVE BEEN PREVIOUSLY DEFINED. NODES IN THIS NODE SET WILL NOT BE 
           PART OF RIGID BODY
 LINE IMAGE: *rigidbody, refnode=ASSEMBLY__PICKEDSET19, 
             pinnset=ASSEMBLY_TOP_SET_PIN
  *rigidbody, refnode=ASSEMBLY__PICKEDSET21, pinnset=ASSEMBLY_BOTTOM_SET_PIN

 ***ERROR: NODE SET ASSEMBLY_BOTTOM_SET_PIN HAS NOT BEEN DEFINED

 ***ERROR: UNABLE TO LOCATE NODE SET ASSEMBLY_BOTTOM_SET_PIN. THE NODE SET MUST 
           HAVE BEEN PREVIOUSLY DEFINED. NODES IN THIS NODE SET WILL NOT BE 
           PART OF RIGID BODY
 LINE IMAGE: *rigidbody, refnode=ASSEMBLY__PICKEDSET21, 
             pinnset=ASSEMBLY_BOTTOM_SET_PIN
  *boundary, op=NEW, loadcase=1
  *boundary, op=NEW, loadcase=2
  *boundary, op=NEW, loadcase=1
  *boundary, op=NEW, loadcase=2
  *boundary, op=NEW, loadcase=1
  *boundary, op=NEW, loadcase=2
  *boundary, op=NEW, loadcase=1
  *boundary, op=NEW, loadcase=2
  *rigidbody, refnode=ASSEMBLY__PICKEDSET19, pinnset=ASSEMBLY_TOP_SET_PIN
  *rigidbody, refnode=ASSEMBLY__PICKEDSET21, pinnset=ASSEMBLY_BOTTOM_SET_PIN
  *output, field, variable=PRESELECT
  *output, field, variable=PRESELECT
  *output, field, variable=PRESELECT

 ***ERROR: NODE SET ASSEMBLY_TOP_SET_PIN HAS NOT BEEN DEFINED

 ***ERROR: NODE SET ASSEMBLY_BOTTOM_SET_PIN HAS NOT BEEN DEFINED
  
                               E L E M E N T   Q U A L I T Y  C H E C K S        
  
  
 ***NOTES: DISTORTED ISOPARAMETRIC ELEMENTS: ANGLE BETWEEN ISOPARAMETRIC LINES 
           IS LESS THAN 45 DEGREES OR GREATER THAN 135 DEGREES.
  
           TETRAHEDRAL QUALITY MEASURE: VOLUME OF TETRAHEDRON DIVIDED BY THE 
           VOLUME OF EQUILATERAL TETRAHEDRON WITH SAME CIRCUMSPHERE RADIUS; 
           0 FOR DEGENERATE TETRAHEDRON AND 1 FOR EQUILATERIAL TETRAHEDRON. IT 
           IS RECOMMENDED THAT THE TETRAHEDRAL QUALITY MEASURE BE GREATER THAN 
           0.02, THE MIN INTERIOR (DIHEDRAL) ANGLE BE GREATER THAN 10 DEGREES, 
           AND THE MAX INTERIOR (DIHEDRAL) ANGLE BE LESS THAN 160 DEGREES. 
  
           MODIFIED TETRAHEDRAL QUALITY MEASURE: ANGLES BETWEEN THE TWO LINE 
           SEGMENTS ON EACH EDGE; THE EDGES OF MODIFIED TETRAHEDRAL SHOULD BE 
           AS STRAIGHT AS POSSIBLE. IT IS RECOMMENDED THAT THE ANGLE BETWEEN 
           THE TWO LINE SEGMENTS ON EACH EDGE IS BETWEEN 160 AND 180 DEGREES. 
  
           TRIANGULAR QUALITY MEASURE: AREA OF TRIANGLE DIVIDED BY THE AREA OF 
           EQUILATERAL TRIANGLE WITH SAME CIRCUMCIRCLE RADIUS; 0 FOR DEGENERATE 
           TRIANGLE AND 1 FOR EQUILATERAL TRIANGLE. IT IS RECOMMENDED THAT THE
           TRIANGULAR QUALITY MEASURE BE GREATER THAN 0.01, THE MIN INTERIOR 
           ANGLE BE GREATER THAN 10 DEGREES, AND THE MAX INTERIOR ANGLE BE LESS 
           THAN 160 DEGREES. 
  
           NODAL ADJUSTMENTS ARISING FROM CONTACT INTERACTIONS AND/OR TIE 
           CONSTRAINTS CAN CAUSE SEVERE ELEMENT DISTORTION. IT MAY BE NECESSARY 
           TO REMESH IN ORDER TO REDUCE THE AMOUNT OF ADJUSTMENT. 

 ***WARNING: 4473 elements are distorted. Either the isoparametric angles are 
             out of the suggested limits or the triangular or tetrahedral 
             quality measure is bad. The elements have been identified in 
             element set WarnElemDistorted.

 ***ERROR: The volume of 6 elements is zero, small, or negative. Check 
           coordinates or node numbering, or modify the mesh seed. In the case 
           of a tetrahedron this error may indicate that all nodes are located 
           very nearly in a plane. The elements have been identified in element 
           set ErrElemVolSmallNegZero.
  
 --------------------------------------------------------------------------------
 Distorted tetrahedral elements
  
      Element       Quality measure     Min angle        Max angle     Adjusted nodes 
 ------------------ ---------------- ---------------- ---------------- -------------- 
         PART-1-1.4       0.00536187          15.8022          155.925       NO       
        PART-1-1.12        0.0182899          15.2259          149.633       NO       
        PART-1-1.25        0.0150918          22.2774          152.015       NO       
        PART-1-1.36       0.00296404          14.7499          158.736       NO       
        PART-1-1.58       0.00709785          20.2354          153.194       NO       
        PART-1-1.67        0.0128623          15.0403          152.357       NO       
        PART-1-1.70        0.0111059          19.9508          148.262       NO       
        PART-1-1.76       0.00020196          8.69216          163.189       NO       
        PART-1-1.80       0.00155168          15.5861          162.679       NO       
        PART-1-1.81       0.00375064          18.5709          159.151       NO       
        PART-1-1.94        0.0181968           23.444          151.635       NO       
       PART-1-1.112        0.0150831          23.6816          153.884       NO       
       PART-1-1.131        0.0030908          18.6614          159.993       NO       
       PART-1-1.140      0.000293445          9.79063          165.501       NO       
       PART-1-1.142       0.00100433          11.5105          162.248       NO       
       PART-1-1.144      0.000194047          8.75838          164.868       NO       
       PART-1-1.158       0.00249212          12.4134           157.56       NO       
       PART-1-1.164      0.000303044          12.3191          167.305       NO       
       PART-1-1.165      0.000878234          12.3101          162.735       NO       
       PART-1-1.166         0.012896          22.6645          116.615       NO       
       PART-1-1.168       0.00200882           11.853          156.262       NO       
       PART-1-1.170        0.0161626          22.5231          152.384       NO       
       PART-1-1.172       0.00402852          17.2055          154.826       NO       
       PART-1-1.183       0.00551208          18.5703             158.       NO       
       PART-1-1.186        0.0182442          24.9863          152.773       NO       
       PART-1-1.187       0.00825162          15.1406          153.603       NO       
       PART-1-1.195        0.0112078           19.261          151.962       NO       
       PART-1-1.213        0.0105117          19.0386          153.976       NO       
       PART-1-1.217        0.0111454          22.9205           154.82       NO       
       PART-1-1.225       0.00619197          19.3404          157.824       NO       
       PART-1-1.231       0.00533433          16.3304            156.8       NO       
       PART-1-1.239        0.0034811          18.6784            159.1       NO       
       PART-1-1.262       0.00440549          13.7147          155.031       NO       
       PART-1-1.264        0.0159357          23.7876          151.454       NO       
       PART-1-1.285      0.000645049          13.4939          164.331       NO       
       PART-1-1.291      0.000186605          11.3149          167.562       NO       
       PART-1-1.292       0.00302788          12.3829          155.536       NO       
       PART-1-1.296       0.00776325          15.4435          154.849       NO       
       PART-1-1.313       0.00959616          30.3159          125.868       NO       
       PART-1-1.318        0.0149695          23.6366          153.656       NO       
       PART-1-1.319      4.15341E-05          8.59935          170.822       NO       
       PART-1-1.320       0.00017194          8.75851          166.883       NO       
       PART-1-1.321      0.000159857          11.2239           168.64       NO       
       PART-1-1.326        0.0190005          23.3038          151.182       NO       
       PART-1-1.332        0.0142818           16.324          146.904       NO       
       PART-1-1.334       0.00132562          15.7308           163.64       NO       
       PART-1-1.344        0.0115647          15.7871          154.765       NO       
       PART-1-1.350      3.35449E-05          6.63366          167.526       NO       
       PART-1-1.359       0.00172103            16.13          162.209       NO       
       PART-1-1.370      9.13428E-05          10.3555          168.196       NO       
       PART-1-1.396       0.00328273          11.7103           158.41       NO       
       PART-1-1.402       0.00214174          13.9185          159.899       NO       
       PART-1-1.407      9.09117E-05          9.91565          170.008       NO       
       PART-1-1.408      3.85666E-05          7.84262          169.885       NO       
       PART-1-1.409      7.52914E-05          9.79834          169.544       NO       
       PART-1-1.411       0.00479227          16.0262          156.237       NO       
       PART-1-1.418        0.0100508          21.7124          154.571       NO       
       PART-1-1.423        0.0128768          14.6253           151.64       NO       
       PART-1-1.431      0.000545265          11.6426          163.984       NO       
       PART-1-1.438       0.00673309          20.0791          153.582       NO       
       PART-1-1.458        0.0029498           14.736          157.997       NO       
       PART-1-1.459      0.000773453          14.1141           164.79       NO       
       PART-1-1.469      9.27227E-05          8.01091          166.513       NO       
       PART-1-1.480        0.0106332          15.0582          148.983       NO       
       PART-1-1.488       0.00556242          14.2024          159.284       NO       
       PART-1-1.490       0.00379073          18.0429          153.687       NO       
       PART-1-1.497        0.0131867          19.0854          156.428       NO       
       PART-1-1.500        0.0155813           14.805          150.311       NO       
       PART-1-1.502         0.019897          24.0202          150.007       NO       
       PART-1-1.513        0.0133527          18.4386          151.993       NO       
       PART-1-1.531       0.00172091          16.1985          160.299       NO       
       PART-1-1.532        0.0197383          19.2572          149.745       NO       
       PART-1-1.542       0.00547503          13.7098          150.478       NO       
       PART-1-1.549       0.00154134           13.619          161.635       NO       
       PART-1-1.550       0.00510657          18.7831          158.025       NO       
       PART-1-1.551       0.00362813          13.1148          154.179       NO       
       PART-1-1.552       0.00172118          13.3508          160.729       NO       
       PART-1-1.556       0.00275074          18.7036          160.134       NO       
       PART-1-1.577       0.00948422           14.053          152.135       NO       
       PART-1-1.578       0.00156067          10.5088          160.795       NO       
       PART-1-1.586       0.00232159          13.9849          159.213       NO       
       PART-1-1.597       0.00303545          12.5412          154.969       NO       
       PART-1-1.602       0.00288797          18.5448          160.416       NO       
       PART-1-1.608        0.0158571          15.2376          149.632       NO       
       PART-1-1.611       0.00129985          14.4169          161.949       NO       
       PART-1-1.618      4.88023E-05          9.12488          170.479       NO       
       PART-1-1.620       0.00207626          14.2731          159.672       NO       
       PART-1-1.621       0.00656334          13.7729          151.893       NO       
       PART-1-1.628         0.007035          19.0121          153.862       NO       
       PART-1-1.645       0.00435951          12.4167          155.537       NO       
       PART-1-1.648        0.0034156          18.3934          160.465       NO       
       PART-1-1.662       0.00783538          13.9617          154.084       NO       
       PART-1-1.665       0.00418686          13.7881          151.393       NO       
       PART-1-1.669       0.00324072          18.2001           159.31       NO       
       PART-1-1.671       0.00188363          14.0268          160.204       NO       
       PART-1-1.674        0.0126953           12.888          159.501       NO       
       PART-1-1.675        0.0177271          27.3218          145.409       NO       
       PART-1-1.678       0.00161879          16.1938          158.839       NO       
       PART-1-1.681       0.00162736          16.1774          162.177       NO       
       PART-1-1.688        0.0129267          23.3134          154.271       NO       
       PART-1-1.693       0.00146601           16.278          160.766       NO       
       PART-1-1.702      0.000618104          14.0486          162.652       NO       
       PART-1-1.715      0.000739202          10.5375          158.886       NO       
       PART-1-1.720       0.00023701           9.6299          165.579       NO       
       PART-1-1.723       0.00389854          12.5802          154.637       NO       
       PART-1-1.724      0.000370535          13.1842          166.808       NO       
       PART-1-1.729        0.0137359          14.9076          149.165       NO       
       PART-1-1.730       0.00433375          16.2257          156.902       NO       
       PART-1-1.733       0.00395792          12.9666          153.257       NO       
       PART-1-1.734      0.000114968          8.49404          163.465       NO       
       PART-1-1.738       0.00143441          15.6199          162.942       NO       
       PART-1-1.744      0.000315237           9.8887          165.249       NO       
       PART-1-1.745        0.0046516          19.5797          157.911       NO       
       PART-1-1.749      0.000601727          14.1959          165.501       NO       
       PART-1-1.751       0.00431429          19.6194          158.239       NO       
       PART-1-1.752       0.00829954          13.6956          152.676       NO       
       PART-1-1.753      0.000325819          9.51977          160.972       NO       
       PART-1-1.756       0.00163795          14.0692           160.38       NO       
       PART-1-1.758      0.000405031          13.7303          165.931       NO       
       PART-1-1.760      0.000369314          10.3167          164.665       NO       
       PART-1-1.762        0.0148151          16.6778          154.593       NO       
       PART-1-1.767        0.0179634          10.8179          158.181       NO       
       PART-1-1.768      0.000171581          11.0936          168.699       NO       
       PART-1-1.769        0.0159653          14.7254          150.253       NO       
       PART-1-1.770       0.00607707          19.2684          154.518       NO       
       PART-1-1.773        0.0271092          9.22785          159.848       NO       
       PART-1-1.799        0.0119242          24.6302           152.49       NO       
       PART-1-1.811      0.000981799          12.9476          163.028       NO       
       PART-1-1.812      1.42192E-05          7.86791           171.76       NO       
       PART-1-1.813      5.68631E-05          7.44546          166.079       NO       
       PART-1-1.821        0.0130625          15.9739          150.426       NO       
       PART-1-1.860        0.0145545          22.6251          152.107       NO       
       PART-1-1.869       0.00586083          14.0539          150.454       NO       
       PART-1-1.871      0.000396578          13.3932          166.086       NO       
       PART-1-1.873       0.00165439          13.9139          160.736       NO       
       PART-1-1.874        0.0442473          9.01934          148.284       NO       
       PART-1-1.878        0.0152806           23.797          153.864       NO       
       PART-1-1.880        0.0192747          34.0721           144.15       NO       
       PART-1-1.901      0.000337234          10.9169          165.064       NO       
       PART-1-1.903       0.00473034          17.7587           154.18       NO       
       PART-1-1.929       0.00551241          14.1887          159.319       NO       
       PART-1-1.933       0.00044272          10.2337           164.36       NO       
       PART-1-1.936        0.0277264           9.7003          160.034       NO       
       PART-1-1.947      0.000663463          10.6846           158.65       NO       
       PART-1-1.948      0.000167833          9.05593          166.611       NO       
       PART-1-1.949      0.000309658          12.3819          165.104       NO       
       PART-1-1.953       0.00329246          17.0708          155.744       NO       
       PART-1-1.956      0.000184002          11.1657          167.619       NO       
       PART-1-1.957      0.000264427          10.5416          165.889       NO       
       PART-1-1.958       0.00831348          14.2115          153.628       NO       
       PART-1-1.973       0.00406077          12.8805          154.744       NO       
       PART-1-1.975       0.00693806          14.2329          150.838       NO       
       PART-1-1.976        0.0114853          23.0383          154.628       NO       
       PART-1-1.977      0.000513177           10.338          159.406       NO       
       PART-1-1.979       0.00189094          14.0727           160.25       NO       
       PART-1-1.980       0.00533801          14.7994          156.234       NO       
       PART-1-1.984      0.000213295          10.2138          166.414       NO       
      PART-1-1.1014         0.019409          23.8077          151.145       NO       
      PART-1-1.1020        0.0106931          19.5228          151.783       NO       
      PART-1-1.1022       0.00162083          15.4401          162.864       NO       
      PART-1-1.1024       0.00642229          19.7747          156.773       NO       
      PART-1-1.1045       0.00287677          15.1763          158.711       NO       
      PART-1-1.1059       0.00319487           18.218          160.619       NO       
      PART-1-1.1062       0.00332312           18.158          159.384       NO       
      PART-1-1.1079        0.0191673          21.5353          143.925       NO       
      PART-1-1.1084       0.00547836          14.6292          156.476       NO       
      PART-1-1.1094      0.000339429          13.1776            166.4       NO       
      PART-1-1.1119       0.00702519          16.9167          155.515       NO       
      PART-1-1.1127       0.00866281          20.6854          155.252       NO       
      PART-1-1.1135        0.0195659          22.7379          151.532       NO       
      PART-1-1.1142       0.00053061          12.3042          165.122       NO       
      PART-1-1.1145        0.0158682          23.3755          153.927       NO       
      PART-1-1.1149       0.00425026          13.0187          156.122       NO       
      PART-1-1.1154        0.0168893          9.86452          156.758       NO       
      PART-1-1.1156       0.00810477          20.2973          149.467       NO       
      PART-1-1.1159        0.0140294          16.2724          147.475       NO       
      PART-1-1.1162       0.00578244            7.685          169.199       NO       
      PART-1-1.1166        0.0171204          15.0497          155.209       NO       
      PART-1-1.1171       0.00138428          11.9029          161.765       NO       
      PART-1-1.1179       0.00318061          7.55192          166.062       NO       
      PART-1-1.1189      6.41656E-05           7.4701          166.048       NO       
      PART-1-1.1193       0.00166821          12.5451          160.564       NO       
      PART-1-1.1202      0.000274218           9.1582          162.305       NO       
      PART-1-1.1203       0.00671295          19.5639          153.855       NO       
      PART-1-1.1207      7.64315E-05          9.93808           170.21       NO       
      PART-1-1.1224       0.00455227          12.3243          151.436       NO       
      PART-1-1.1225       0.00160268          16.2478          159.279       NO       
      PART-1-1.1227      0.000435313          13.3753          165.114       NO       
      PART-1-1.1229      0.000565998          11.4568          162.847       NO       
      PART-1-1.1233       0.00043724          12.8116           164.32       NO       
      PART-1-1.1235      0.000192776          11.4417          167.378       NO       
      PART-1-1.1239       0.00202253          16.0534          161.911       NO       
      PART-1-1.1240      1.43021E-05          7.71999          171.787       NO       
      PART-1-1.1241      2.14867E-05          6.70139          170.385       NO       
      PART-1-1.1242       0.00671617          22.8359          155.345       NO       
      PART-1-1.1244       0.00369841          16.1917          155.883       NO       
      PART-1-1.1245       0.00781586           17.645          154.592       NO       
      PART-1-1.1260       0.00196355          16.0075          159.994       NO       
      PART-1-1.1263      2.65839E-05          6.39791          168.148       NO       
      PART-1-1.1265      2.51461E-05          8.22604          172.096       NO       
      PART-1-1.1268      0.000183609          11.0227          167.692       NO       
      PART-1-1.1270      0.000915737          12.4278          162.533       NO       
      PART-1-1.1271        0.0195211          11.6378           160.01       NO       
      PART-1-1.1278       0.00474746          15.9404           157.35       NO       
      PART-1-1.1286        0.0020399          17.3117          161.409       NO       
      PART-1-1.1294       5.3675E-05          9.46198          170.781       NO       
      PART-1-1.1311       0.00756829          20.6762          156.236       NO       
      PART-1-1.1318       0.00236655           17.566          161.059       NO       
      PART-1-1.1322        0.0345391          7.93026          160.085       NO       
      PART-1-1.1337       0.00440645          8.72762          163.615       NO       
      PART-1-1.1338       0.00344719          12.4488          155.649       NO       
      PART-1-1.1348       0.00775789          20.1235          155.989       NO       
      PART-1-1.1349      4.73141E-05          8.86842           170.61       NO       
      PART-1-1.1350       0.00316213          13.7318          158.605       NO       
      PART-1-1.1353       1.8857E-05          8.46238          171.839       NO       
      PART-1-1.1354      0.000445261          9.39045          161.776       NO       
      PART-1-1.1358       0.00157073            11.71          158.977       NO       
      PART-1-1.1372        0.0100034          22.5242           150.79       NO       
      PART-1-1.1380       0.00743061          14.5313          153.952       NO       
      PART-1-1.1387       0.00311736          18.1236          159.472       NO       
      PART-1-1.1431       0.00733425          20.8114          155.721       NO       
      PART-1-1.1435       0.00391186          12.8098            160.6       NO       
      PART-1-1.1452        0.0158134          15.3157           149.14       NO       
      PART-1-1.1488       0.00969416          14.8612          155.731       NO       
      PART-1-1.1496        0.0123971          23.0002          154.481       NO       
      PART-1-1.1497       0.00114101          11.3619          159.768       NO       
      PART-1-1.1498       0.00015946          8.61748          165.181       NO       
      PART-1-1.1500       0.00016691          9.09285          162.399       NO       
      PART-1-1.1501      4.68543E-05          9.00125           171.24       NO       
      PART-1-1.1502       0.00953639          19.4515          152.384       NO       
      PART-1-1.1503       0.00142923          11.9558          161.213       NO       
      PART-1-1.1504      6.53059E-05          8.46831          168.815       NO       
      PART-1-1.1505      0.000272704           12.045          167.903       NO       
      PART-1-1.1508         0.019938          16.5949          148.732       NO       
      PART-1-1.1510       0.00463958          12.6551          155.219       NO       
      PART-1-1.1511      0.000375535          10.9993          164.859       NO       
      PART-1-1.1512       0.00329309          18.2007          160.606       NO       
      PART-1-1.1513        0.0022379          15.6087          159.797       NO       
      PART-1-1.1514      0.000627669          13.8686          165.221       NO       
      PART-1-1.1526        0.0138625          23.1891          153.481       NO       
      PART-1-1.1544        0.0107668          22.1667          154.797       NO       
      PART-1-1.1555       0.00452098          14.0368          151.063       NO       
      PART-1-1.1556       0.00635035          13.3111          152.538       NO       
      PART-1-1.1558       0.00463586          19.2264          159.216       NO       
      PART-1-1.1559       0.00310177           17.203          158.124       NO       
      PART-1-1.1562      0.000202693          8.92022          164.819       NO       
      PART-1-1.1565      0.000416067          10.3717          159.223       NO       
      PART-1-1.1566       0.00113896          13.1559          162.181       NO       
      PART-1-1.1572      4.37168E-05          8.99757           171.08       NO       
      PART-1-1.1574      0.000291807          12.6034          166.844       NO       
      PART-1-1.1576       7.4853E-05          8.21364          163.891       NO       
      PART-1-1.1579      6.99033E-05          7.40101          165.859       NO       
      PART-1-1.1582        0.0080944          19.7117          150.124       NO       
      PART-1-1.1609         0.010434          12.0804          161.156       NO       
      PART-1-1.1615        0.0134794          23.3222          152.241       NO       
      PART-1-1.1620        0.0134181          16.1732          149.693       NO       
      PART-1-1.1643         0.011648          19.4595          152.634       NO       
      PART-1-1.1646        0.0132853          16.0063          147.339       NO       
      PART-1-1.1661        0.0137918          18.0212          150.501       NO       
      PART-1-1.1680        0.0120817          20.1681          147.789       NO       
      PART-1-1.1682        0.0152958          15.5302          147.672       NO       
      PART-1-1.1685       0.00723694          20.0704          153.333       NO       
      PART-1-1.1701       0.00673554          13.1166          154.933       NO       
      PART-1-1.1727         0.005497          14.1607          159.349       NO       
      PART-1-1.1730       0.00720537          19.1188          153.742       NO       
      PART-1-1.1746        0.0103528          12.7181          149.673       NO       
      PART-1-1.1754       0.00729377          20.7318           155.58       NO       
      PART-1-1.1755       0.00733286          11.3548          159.344       NO       
      PART-1-1.1761       0.00536224          21.4386          154.087       NO       
      PART-1-1.1768       0.00567815          11.0249           156.83       NO       
      PART-1-1.1773       0.00800893          16.1027          152.521       NO       
      PART-1-1.1780       0.00872753           7.0739          168.085       NO       
      PART-1-1.1781       0.00571021           18.038          158.997       NO       
      PART-1-1.1800        0.0177053          15.6113          147.157       NO       
      PART-1-1.1821      0.000226127          10.0632          166.283       NO       
      PART-1-1.1825      3.68513E-05          7.08724          169.742       NO       
      PART-1-1.1832      0.000933074          10.8776            160.7       NO       
      PART-1-1.1833      4.25506E-05          8.74956          170.725       NO       
      PART-1-1.1836       0.00560002          18.1897          152.778       NO       
      PART-1-1.1837      0.000357318          9.27629          162.304       NO       
      PART-1-1.1838       0.00218201          15.8116          159.788       NO       
      PART-1-1.1839        0.0160356          15.8279          150.296       NO       
      PART-1-1.1843        0.0161179           23.241          151.625       NO       
      PART-1-1.1848       0.00175803          12.4266          160.473       NO       
      PART-1-1.1874       0.00365518           17.521           157.33       NO       
      PART-1-1.1878      0.000392645          9.60179          165.145       NO       
      PART-1-1.1887      0.000514536          9.78086          160.883       NO       
      PART-1-1.1888       0.00288259          13.3217          158.901       NO       
      PART-1-1.1896       0.00432144          14.4001          156.344       NO       
      PART-1-1.1897      0.000190377          11.3114          168.356       NO       
      PART-1-1.1898      0.000317776           12.861          166.663       NO       
      PART-1-1.1902      0.000264339          9.50073          165.774       NO       
      PART-1-1.1903      5.79226E-05          9.89143          170.186       NO       
      PART-1-1.1906      6.84534E-05          9.69701          170.499       NO       
      PART-1-1.1908       4.0189E-05          6.94867          168.379       NO       
      PART-1-1.1909      4.77132E-05          7.37352           169.31       NO       
      PART-1-1.1912      0.000423368          10.2599          160.028       NO       
      PART-1-1.1916      3.43714E-05          7.75501          170.107       NO       
      PART-1-1.1920        0.0091782           18.655          155.311       NO       
      PART-1-1.1928       8.6712E-05          7.79725          166.887       NO       
      PART-1-1.1929        0.0224762          9.97991          156.578       NO       
      PART-1-1.1931       0.00723052          18.7899          153.914       NO       
      PART-1-1.1941      0.000496762          12.7177          165.055       NO       
      PART-1-1.1944       0.00252045          12.4517          157.471       NO       
      PART-1-1.1950       0.00202011          17.2821          161.464       NO       
      PART-1-1.1953       0.00558294          14.5327          156.432       NO       
      PART-1-1.1957       0.00471553          15.9552          157.369       NO       
      PART-1-1.1961        0.0131888          19.0863          156.427       NO       
      PART-1-1.1964      0.000152875           8.9107          162.323       NO       
      PART-1-1.1973        0.0139451          24.4651          152.976       NO       
      PART-1-1.1974       0.00665821          15.9897          154.665       NO       
      PART-1-1.1976        0.0131876          19.0857          156.427       NO       
      PART-1-1.1982        0.0131865          19.0853          156.428       NO       
      PART-1-1.1983       0.00740328          18.9029          151.293       NO       
      PART-1-1.1987       0.00117832          15.6465          163.042       NO       
      PART-1-1.1992       0.00859552           14.625           153.31       NO       
      PART-1-1.2000       0.00180894           16.642          162.532       NO       
      PART-1-1.2004        0.0089747          19.3215          152.662       NO       
      PART-1-1.2005       0.00062296          13.6843          165.374       NO       
      PART-1-1.2006       0.00160078          12.1679          155.309       NO       
      PART-1-1.2008      0.000859367          10.3974          159.953       NO       
      PART-1-1.2011       0.00122607          14.9539          161.955       NO       
      PART-1-1.2012         0.006766          16.9572           155.69       NO       
      PART-1-1.2016      0.000984944            11.45          162.332       NO       
      PART-1-1.2017       0.00808437          19.1958          153.143       NO       
      PART-1-1.2018        0.0188216          15.4428          149.419       NO       
      PART-1-1.2021      0.000141406          8.22421          164.586       NO       
      PART-1-1.2022       0.00728856          19.0844          157.141       NO       
      PART-1-1.2033       0.00541228          14.4519           156.86       NO       
      PART-1-1.2036         0.010782          20.3028            148.2       NO       
      PART-1-1.2046       0.00816388          20.4031          155.528       NO       
      PART-1-1.2053        0.0058937           16.301          156.545       NO       
      PART-1-1.2057      2.71227E-23      0.000121082             180.       NO       
      PART-1-1.2071       0.00202558          15.4552          160.237       NO       
      PART-1-1.2072       0.00566343          17.9293          152.859       NO       
      PART-1-1.2108       0.00352463          18.5692          158.978       NO       
      PART-1-1.2109       0.00303488          16.8459          158.356       NO       
      PART-1-1.2112       0.00634021          13.1279          153.144       NO       
      PART-1-1.2113       0.00262278          13.1236          159.454       NO       
      PART-1-1.2130       0.00662392          17.3973          152.774       NO       
      PART-1-1.2136         0.018672          23.8982           150.54       NO       
      PART-1-1.2144       0.00605959           14.106          151.264       NO       
      PART-1-1.2146        0.0408116          9.55755          158.802       NO       
      PART-1-1.2156      0.000426352          10.3348          159.323       NO       
      PART-1-1.2158        0.0185056          15.3967          149.584       NO       
      PART-1-1.2177       0.00836782          14.4874          153.878       NO       
      PART-1-1.2183       0.00664333           15.162          155.342       NO       
      PART-1-1.2186        0.0197863          16.0769           147.54       NO       
      PART-1-1.2197       0.00770559          20.4289          155.863       NO       
      PART-1-1.2200       0.00766913           14.235          153.715       NO       
      PART-1-1.2202       0.00705265          17.1762          155.161       NO       
      PART-1-1.2206       0.00263556           17.281          158.109       NO       
      PART-1-1.2218        0.0144632          14.1221          151.438       NO       
      PART-1-1.2232      0.000522654          10.2087            162.3       NO       
      PART-1-1.2251        0.0156474          21.5862          148.867       NO       
      PART-1-1.2253      0.000518123          13.8027          163.272       NO       
      PART-1-1.2254      0.000524234          13.4733          165.742       NO       
      PART-1-1.2270        0.0677179           8.1859          162.012       NO       
      PART-1-1.2272        0.0114223          15.0623          152.025       NO       
      PART-1-1.2281        0.0189883          9.33707          158.765       NO       
      PART-1-1.2293         0.017545          15.1619          149.359       NO       
      PART-1-1.2313       0.00600961          8.44767          164.257       NO       
      PART-1-1.2344      0.000770512          10.9495          158.248       NO       
      PART-1-1.2345       0.00315916          9.11888          165.796       NO       
      PART-1-1.2349      0.000161949          8.89624           166.79       NO       
      PART-1-1.2351       0.00028955          9.05131          162.742       NO       
      PART-1-1.2352      0.000353828          12.5779          164.685       NO       
      PART-1-1.2353        0.0119571          12.0306          160.184       NO       
      PART-1-1.2354       0.00575376          15.3195           155.92       NO       
      PART-1-1.2355       0.00386631          17.3458          154.898       NO       
      PART-1-1.2356      0.000288529          10.6633          165.606       NO       
      PART-1-1.2358       0.00259272          17.7985          161.205       NO       
      PART-1-1.2359       0.00319225          12.3092          155.757       NO       
      PART-1-1.2363      8.32354E-22      0.000334599          179.999       NO       
      PART-1-1.2367        0.0104379          14.8714          152.344       NO       
      PART-1-1.2369       0.00615353          13.3318           155.57       NO       
      PART-1-1.2374        0.0140921          16.3334          153.377       NO       
      PART-1-1.2376        0.0131439           23.523          153.986       NO       
      PART-1-1.2383        0.0144734          22.3905          152.243       NO       
      PART-1-1.2385       0.00519881          14.3214           157.08       NO       
      PART-1-1.2394       0.00915001          21.9582          155.905       NO       
      PART-1-1.2396       0.00528242          18.4285          155.468       NO       
      PART-1-1.2398       0.00197014          11.9602          158.645       NO       
      PART-1-1.2399       0.00636185          14.2628          150.645       NO       
      PART-1-1.2400      0.000404236          13.3874          166.069       NO       
      PART-1-1.2402      0.000222836          11.5667          168.041       NO       
      PART-1-1.2403       0.00171091            13.93          160.677       NO       
      PART-1-1.2404      0.000678997          10.1635          160.127       NO       
      PART-1-1.2407      0.000199485          10.1453          166.612       NO       
      PART-1-1.2416       0.00703226          15.1843          154.955       NO       
      PART-1-1.2419       0.00736865          18.8826           153.88       NO       
      PART-1-1.2420        0.0187628          19.8314          149.905       NO       
      PART-1-1.2432       0.00771711          20.6752          155.731       NO       
      PART-1-1.2434       0.00768777          19.3287          150.702       NO       
      PART-1-1.2439       0.00714381          17.4759          154.975       NO       
      PART-1-1.2447        0.0140319          20.8227          146.435       NO       
      PART-1-1.2448       0.00561513          15.1773           158.11       NO       
      PART-1-1.2449       0.00701054          19.5542          153.649       NO       
      PART-1-1.2450       0.00605657          15.4737          155.525       NO       
      PART-1-1.2468       0.00990601          18.8662          152.504       NO       
      PART-1-1.2470      0.000520014          10.2389          164.573       NO       
      PART-1-1.2478        0.0082551          20.2723          155.687       NO       
      PART-1-1.2483         0.008685          17.2869          154.055       NO       
      PART-1-1.2493       0.00160038          13.7692          161.219       NO       
      PART-1-1.2500        0.0159568           18.724          151.291       NO       
      PART-1-1.2501       0.00859514           14.242          153.972       NO       
      PART-1-1.2505      4.11227E-05             6.99          168.216       NO       
      PART-1-1.2506       0.00676353          13.1654          153.362       NO       
      PART-1-1.2508       0.00317263          16.7259          158.223       NO       
      PART-1-1.2510        0.0111681          20.9155          147.789       NO       
      PART-1-1.2513       0.00017053          11.4754          166.775       NO       
      PART-1-1.2516      0.000194552          11.4718          168.291       NO       
      PART-1-1.2528      5.92812E-05          7.68806          164.885       NO       
      PART-1-1.2529      0.000918063           15.496          163.792       NO       
      PART-1-1.2537      6.84216E-05          7.28805          166.232       NO       
      PART-1-1.2543      4.12055E-05          8.91237          171.241       NO       
      PART-1-1.2550      1.19927E-05           5.8134          170.363       NO       
      PART-1-1.2566       0.00146049          13.0734          160.315       NO       
      PART-1-1.2568        0.0027223          12.8847          154.235       NO       
      PART-1-1.2569        0.0015269           16.215          160.649       NO       
      PART-1-1.2577       0.00470337          18.7683          157.883       NO       
      PART-1-1.2593       0.00805007          21.5069          156.812       NO       
      PART-1-1.2594      0.000977818          14.9767          163.634       NO       
      PART-1-1.2596       0.00540559           16.366          156.972       NO       
      PART-1-1.2604       0.00275856          15.6419           157.16       NO       
      PART-1-1.2605       0.00177812          10.8301          160.101       NO       
      PART-1-1.2608        0.0119754          17.4236          151.379       NO       
      PART-1-1.2609       0.00708412          14.4588          149.694       NO       
      PART-1-1.2620       0.00923227          21.4746          155.874       NO       
      PART-1-1.2621       0.00462621          18.7336          158.347       NO       
      PART-1-1.2637       0.00205573          15.8932          161.977       NO       
      PART-1-1.2639        0.0187804          25.4807          151.829       NO       
      PART-1-1.2657        0.0172998           24.358          153.034       NO       
      PART-1-1.2659       0.00756707          14.9113          154.872       NO       
      PART-1-1.2673        0.0112537          20.8465          150.688       NO       
      PART-1-1.2677        0.0154775          21.1317          149.223       NO       
      PART-1-1.2681        0.0198885          24.0664          150.302       NO       
      PART-1-1.2684         0.013575          16.3713          153.588       NO       
      PART-1-1.2687       0.00593688          17.2306          155.933       NO       
      PART-1-1.2690       0.00652171          14.8802          155.905       NO       
      PART-1-1.2718       0.00306327          6.75545          166.629       NO       
      PART-1-1.2719       0.00750203          23.9924          148.828       NO       
      PART-1-1.2731        0.0124235          10.9286          160.326       NO       
      PART-1-1.2744        0.0695355          8.69011          157.077       NO       
      PART-1-1.2746        0.0001498          4.95405          169.963       NO       
      PART-1-1.2748      5.30226E-05          3.41171          174.722       NO       
      PART-1-1.2752        0.0102644          14.7939          150.289       NO       
      PART-1-1.2760       0.00815053           19.689          152.912       NO       
      PART-1-1.2761       0.00553407          19.7055          154.444       NO       
      PART-1-1.2767         0.017068          10.8479          156.465       NO       
      PART-1-1.2772       0.00495492          16.2732          157.153       NO       
      PART-1-1.2780       0.00690868          16.7992          155.288       NO       
      PART-1-1.2781        0.0173699          15.9555          150.349       NO       
      PART-1-1.2796       0.00473547          16.1849          158.045       NO       
      PART-1-1.2804         0.017083          23.6229           151.16       NO       
      PART-1-1.2813       0.00579628          14.7466          156.116       NO       
      PART-1-1.2820       0.00842981          17.1214          155.223       NO       
      PART-1-1.2826       0.00639294          15.0314          155.353       NO       
      PART-1-1.2827       0.00658806           13.346          154.866       NO       
      PART-1-1.2877       0.00174188          12.7623          160.452       NO       
      PART-1-1.2883        0.0086383          20.6546          155.736       NO       
      PART-1-1.2885        0.0178885          21.5711          144.371       NO       
      PART-1-1.2887       0.00737514          19.8496          153.195       NO       
      PART-1-1.2890       0.00244864           15.956          159.892       NO       
      PART-1-1.2900       0.00584386          14.0824          151.685       NO       
      PART-1-1.2902       0.00138273          15.0654          163.214       NO       
      PART-1-1.2905       1.5578E-05          6.17433          168.628       NO       
      PART-1-1.2911       0.00137746          11.0308          160.445       NO       
      PART-1-1.2912      0.000109135          8.43841          163.452       NO       
      PART-1-1.2913      5.20822E-05          8.21758          169.361       NO       
      PART-1-1.2917       6.1714E-05          9.80728          169.124       NO       
      PART-1-1.2918      0.000745607          10.8749          158.185       NO       
      PART-1-1.2919      0.000604995          13.4639          165.649       NO       
      PART-1-1.2920      0.000603033          9.99188          162.343       NO       
      PART-1-1.2925       0.00021077          11.4525          167.248       NO       
      PART-1-1.2926      0.000344786          12.6394          164.756       NO       
      PART-1-1.2927        0.0038314          17.5106          154.892       NO       
      PART-1-1.2929       0.00283344          14.8463          158.898       NO       
      PART-1-1.2931       0.00188075          15.8562           160.21       NO       
      PART-1-1.2933       0.00362672           12.752          154.784       NO       
      PART-1-1.2935       0.00297642          18.3706          160.502       NO       
      PART-1-1.2944       0.00571998          18.6846          154.946       NO       
      PART-1-1.2949      0.000450874          12.8895          165.177       NO       
      PART-1-1.2952        0.0046921          14.5605          156.624       NO       
      PART-1-1.2953      0.000394402          10.2714          164.483       NO       
      PART-1-1.2956      0.000469752          10.2251          159.715       NO       
      PART-1-1.2957      0.000753984          10.4569          159.709       NO       
      PART-1-1.2961       0.00946767          20.9382          154.964       NO       
      PART-1-1.2962      7.77658E-05          8.04177          164.359       NO       
      PART-1-1.2963      6.57704E-05          10.1176          170.019       NO       
      PART-1-1.2982        0.0011585           7.9171          167.755       NO       
      PART-1-1.2991        0.0106858           12.748          157.017       NO       
      PART-1-1.3008       0.00175401          15.3342           160.65       NO       
      PART-1-1.3013         0.010757          19.3192          155.366       NO       
      PART-1-1.3017       0.00693918          19.0966           153.96       NO       
      PART-1-1.3019       0.00604818          15.1241          155.666       NO       
      PART-1-1.3027       0.00816651          19.1667          153.161       NO       
      PART-1-1.3028         0.008001          17.3584          154.565       NO       
      PART-1-1.3029       0.00983969          19.5978          149.194       NO       
      PART-1-1.3031        0.0131241          22.9182          152.497       NO       
      PART-1-1.3095       0.00212837          13.1901          159.203       NO       
      PART-1-1.3116       0.00918478           21.264          155.463       NO       
      PART-1-1.3124        0.0183013          18.5043          146.409       NO       
      PART-1-1.3127        0.0113991          15.2758          148.568       NO       
      PART-1-1.3131       0.00879111          14.3056          153.241       NO       
      PART-1-1.3141       0.00252376          14.5151          159.323       NO       
      PART-1-1.3142          0.01176          11.8365          161.704       NO       
      PART-1-1.3155       0.00695636          14.3788          150.683       NO       
      PART-1-1.3157       0.00629595          19.0446          154.387       NO       
      PART-1-1.3160        0.0137158          15.0253          149.487       NO       
      PART-1-1.3161       0.00168216          13.7242          160.779       NO       
      PART-1-1.3162        0.0164526          16.9088          145.306       NO       
      PART-1-1.3163       0.00553986          19.1362          152.272       NO       
      PART-1-1.3164       0.00459272           13.463          154.189       NO       
      PART-1-1.3165       0.00198827          13.3499          160.659       NO       
      PART-1-1.3166        0.0124286          18.3243          152.932       NO       
      PART-1-1.3179      0.000851147          10.9117          161.842       NO       
      PART-1-1.3188       0.00104583          12.2922          162.925       NO       
      PART-1-1.3189        0.0138374          15.6883          147.644       NO       
      PART-1-1.3190       0.00733082          21.0578          157.384       NO       
      PART-1-1.3195      5.40146E-05          9.72626          170.298       NO       
      PART-1-1.3196       0.00350781          13.3869          157.809       NO       
      PART-1-1.3197      3.21203E-05          7.67661          170.273       NO       
      PART-1-1.3199       0.00167585          15.4982          162.411       NO       
      PART-1-1.3207         0.012488          18.9656          152.788       NO       
      PART-1-1.3208       0.00677664          19.6636          153.828       NO       
      PART-1-1.3225       0.00877929          18.5849          150.439       NO       
      PART-1-1.3234       0.00382242           12.932          154.565       NO       
      PART-1-1.3245       0.00981443           17.916          152.941       NO       
      PART-1-1.3266       0.00591243          15.4641          155.688       NO       
      PART-1-1.3281       0.00423066          18.9572           158.66       NO       
      PART-1-1.3296       0.00730178          14.7377          152.998       NO       
      PART-1-1.3297       0.00664125          19.4908          151.372       NO       
      PART-1-1.3300       0.00153659          13.5614          161.043       NO       
      PART-1-1.3304       0.00438006          14.3389           156.96       NO       
      PART-1-1.3305       0.00132724           11.922           161.46       NO       
      PART-1-1.3308        0.0113872          15.1176          151.657       NO       
      PART-1-1.3312      7.18476E-05          8.06196          164.237       NO       
      PART-1-1.3314       0.00862688          21.3063          155.751       NO       
      PART-1-1.3332       0.00154592          11.1041          157.853       NO       
      PART-1-1.3335       0.00650016          14.5065           150.24       NO       
      PART-1-1.3338       0.00799225           21.329          156.704       NO       
      PART-1-1.3339       0.00152095          13.5998          161.234       NO       
      PART-1-1.3349       0.00710837          14.4991          155.213       NO       
      PART-1-1.3354        0.0163523          23.9386          153.616       NO       
      PART-1-1.3364       0.00789356           15.187          152.267       NO       
      PART-1-1.3365        0.0131215          20.5209          150.486       NO       
      PART-1-1.3376       0.00533917          14.4909          156.533       NO       
      PART-1-1.3377       0.00673879          18.6311          154.303       NO       
      PART-1-1.3381        0.0101263          19.1805          152.308       NO       
      PART-1-1.3384       0.00397084          13.6629          151.689       NO       
      PART-1-1.3386        0.0117683          22.8513          154.771       NO       
      PART-1-1.3389        0.0034835          13.4376          152.999       NO       
      PART-1-1.3394        0.0149059          24.7463          152.668       NO       
      PART-1-1.3404       0.00915006           21.024          154.872       NO       
      PART-1-1.3407       0.00735063          17.1822          155.279       NO       
      PART-1-1.3414        0.0041338          19.1736          153.213       NO       
      PART-1-1.3428      0.000122567           9.2426          167.661       NO       
      PART-1-1.3432       0.00898603          22.1329          126.078       NO       
      PART-1-1.3438        0.0167652          15.4608          149.055       NO       
      PART-1-1.3442        0.0122325          23.1827          154.254       NO       
      PART-1-1.3445        0.0111252          17.8024          153.449       NO       
      PART-1-1.3452       0.00557745          14.8886          156.354       NO       
      PART-1-1.3456       0.00734849          14.2142          149.943       NO       
      PART-1-1.3459       0.00252411          16.8535          157.001       NO       
      PART-1-1.3462       0.00601384          22.3096          155.885       NO       
      PART-1-1.3463       0.00280757          18.5471          160.337       NO       
      PART-1-1.3476       0.00166984          11.0007          160.039       NO       
      PART-1-1.3477       0.00937502          20.0443          151.956       NO       
      PART-1-1.3482       0.00780282          13.9967          151.845       NO       
      PART-1-1.3487       0.00167671          15.3902          162.774       NO       
      PART-1-1.3491        0.0029678          10.0312          163.045       NO       
      PART-1-1.3501        0.0168443          13.7845          156.032       NO       
      PART-1-1.3521       0.00595427          8.95971          163.296       NO       
      PART-1-1.3531       0.00239449          17.0906          160.972       NO       
      PART-1-1.3535        0.0011456          14.9212          160.478       NO       
      PART-1-1.3536       0.00592932          15.3736           152.71       NO       
      PART-1-1.3539      0.000620938          13.4219          165.547       NO       
      PART-1-1.3543      0.000722861          14.9177           164.35       NO       
      PART-1-1.3559       0.00510079          12.7016          155.995       NO       
      PART-1-1.3562        0.0051254          18.6286          158.355       NO       
      PART-1-1.3566          0.01434          20.2484          146.705       NO       
      PART-1-1.3572       0.00257489          18.0684          160.748       NO       
      PART-1-1.3576       0.00335377          12.3426          155.619       NO       
      PART-1-1.3585       0.00166178          15.2285          162.798       NO       
      PART-1-1.3587       0.00737823          15.7044          153.989       NO       
      PART-1-1.3589        0.0123828           23.223          154.273       NO       
      PART-1-1.3594       0.00508786          14.1849          154.254       NO       
      PART-1-1.3597        0.0101007          20.6663          151.276       NO       
      PART-1-1.3604      0.000191345          11.1591          168.543       NO       
      PART-1-1.3605       0.00495679           19.271          158.516       NO       
      PART-1-1.3610      0.000577505          10.2839          159.327       NO       
      PART-1-1.3631       0.00336151          12.0985          156.261       NO       
      PART-1-1.3638       0.00319755          13.2289          153.437       NO       
      PART-1-1.3639       0.00863158          22.5605          155.106       NO       
      PART-1-1.3658       0.00456259          15.4019          156.101       NO       
      PART-1-1.3673      0.000799169          15.1323          164.203       NO       
      PART-1-1.3681        0.0031277          12.2847           155.34       NO       
      PART-1-1.3682      0.000633777          13.1573          164.285       NO       
      PART-1-1.3689       0.00156021          12.1804          155.383       NO       
      PART-1-1.3695       0.00167148          16.4272          162.823       NO       
      PART-1-1.3697      0.000119383          2.68711          175.481       NO       
      PART-1-1.3699       0.00853072           14.143          152.952       NO       
      PART-1-1.3701       0.00676144          16.2806          159.778       NO       
      PART-1-1.3711       0.00670791          8.86291          160.277       NO       
      PART-1-1.3715       0.00418642          18.2351          160.336       NO       
      PART-1-1.3746       0.00820221           16.221          153.546       NO       
      PART-1-1.3760       0.00663203          19.6895           153.88       NO       
      PART-1-1.3769       0.00333488          12.6054          155.216       NO       
      PART-1-1.3793       0.00930524          19.8861          152.062       NO       
      PART-1-1.3794        0.0130868          23.1861          154.435       NO       
      PART-1-1.3797      0.000568178           12.876          164.731       NO       
      PART-1-1.3798       0.00081914          6.82588          169.388       NO       
      PART-1-1.3800       0.00341698          18.5415          160.255       NO       
      PART-1-1.3813          0.01262          14.4421          149.833       NO       
      PART-1-1.3832       0.00919082          10.0767          161.511       NO       
      PART-1-1.3837        0.0144801          15.2465          148.385       NO       
      PART-1-1.3838       0.00500488          19.8478          157.409       NO       
      PART-1-1.3843        0.0129302          21.8801          153.163       NO       
      PART-1-1.3844       0.00857176          20.8948          155.495       NO       
      PART-1-1.3848       0.00821641          18.7468          150.732       NO       
      PART-1-1.3849       0.00316259          18.8678          159.892       NO       
      PART-1-1.3850        0.0107529          18.6349          152.398       NO       
      PART-1-1.3858       0.00123285          13.4547          161.799       NO       
      PART-1-1.3859       0.00580476          20.3271            157.3       NO       
      PART-1-1.3873       0.00166571          15.5303          160.721       NO       
      PART-1-1.3874        0.0034482          17.2666          155.449       NO       
      PART-1-1.3890        0.0006633          13.3321          164.081       NO       
      PART-1-1.3900        0.0198472          21.1972          149.247       NO       
      PART-1-1.3908        0.0110709          23.5536          153.841       NO       
      PART-1-1.3909        0.0177923          18.8456          150.733       NO       
      PART-1-1.3911       0.00121268          13.0944          161.339       NO       
      PART-1-1.3912       0.00584065          18.7964           154.79       NO       
      PART-1-1.3914        0.0044238          19.1614          158.176       NO       
      PART-1-1.3937       0.00817665          16.7339          154.601       NO       
      PART-1-1.3938       0.00067952          11.0822          164.199       NO       
      PART-1-1.3941       0.00915147           17.486          149.669       NO       
      PART-1-1.3959       0.00722247          14.5605          146.338       NO       
      PART-1-1.3967       0.00189395          16.0438          162.164       NO       
      PART-1-1.3971      0.000880368          14.2784          165.097       NO       
      PART-1-1.3972       0.00683093          13.7006           151.96       NO       
      PART-1-1.3981        0.0016707          12.0975          160.867       NO       
      PART-1-1.3982      0.000101528          9.09964          170.233       NO       
      PART-1-1.3987       0.00321477           11.643          158.286       NO       
      PART-1-1.3990       0.00116425          13.1627          161.494       NO       
      PART-1-1.4000       0.00829779          20.8477          155.322       NO       
      PART-1-1.4007        0.0017413          10.7688          160.411       NO       
      PART-1-1.4009        0.0017306          13.2641          154.723       NO       
      PART-1-1.4010       0.00174887          15.1793          162.826       NO       
      PART-1-1.4019       0.00198406          15.9445          160.111       NO       
      PART-1-1.4025       0.00683874          20.6388          157.211       NO       
      PART-1-1.4028      0.000518961          13.2257          165.885       NO       
      PART-1-1.4031      0.000625748          14.0525          162.614       NO       
      PART-1-1.4032       0.00191009          11.7009          156.539       NO       
      PART-1-1.4034      0.000184573          9.28919          161.706       NO       
      PART-1-1.4035      8.62947E-05          9.91947          169.963       NO       
      PART-1-1.4037      0.000101598          10.7988          167.872       NO       
      PART-1-1.4040        0.0126275          23.1146          154.415       NO       
      PART-1-1.4042        0.0142823          18.5915          151.672       NO       
      PART-1-1.4049       0.00110588          14.7159          160.688       NO       
      PART-1-1.4050      0.000417294          10.1467            164.6       NO       
      PART-1-1.4060       0.00834533           15.426          152.413       NO       
      PART-1-1.4066        0.0135643          22.6658          154.896       NO       
      PART-1-1.4075       0.00227813          13.9954          159.954       NO       
      PART-1-1.4092        0.0133954             15.7          153.715       NO       
      PART-1-1.4099       0.00403076          17.1215          154.916       NO       
      PART-1-1.4100       0.00314886          12.5381          155.161       NO       
      PART-1-1.4102       0.00165996          15.6306          160.701       NO       
      PART-1-1.4103       0.00604683          18.7413          154.729       NO       
      PART-1-1.4109       0.00787381          20.2301          155.958       NO       
      PART-1-1.4121        0.0159989          23.9254          152.528       NO       
      PART-1-1.4126       0.00185549          16.0184          162.125       NO       
      PART-1-1.4127       0.00184815          11.5772          159.165       NO       
      PART-1-1.4130      0.000738787          10.8864          163.197       NO       
      PART-1-1.4131       0.00913522          19.9162          149.363       NO       
      PART-1-1.4133       0.00565394          15.0362          155.823       NO       
      PART-1-1.4154        0.0115914          22.8882          154.603       NO       
      PART-1-1.4155        0.0052795          14.6911          156.664       NO       
      PART-1-1.4156        0.0173741          10.4865          156.739       NO       
      PART-1-1.4157       0.00232328          13.9545           159.36       NO       
      PART-1-1.4162       0.00802338          9.84522          161.957       NO       
      PART-1-1.4164       0.00676393          14.0817           151.25       NO       
      PART-1-1.4180       0.00231947          14.3806          162.477       NO       
      PART-1-1.4194      5.80921E-05          9.56955          170.728       NO       
      PART-1-1.4204       0.00116458          11.6274           156.32       NO       
      PART-1-1.4213       0.00420706          6.29082          169.942       NO       
      PART-1-1.4238      0.000908395          10.5664          159.662       NO       
      PART-1-1.4239        0.0156281          18.3887          151.484       NO       
      PART-1-1.4245       0.00238594          12.2839          157.685       NO       
      PART-1-1.4249       0.00189194          16.9758          161.751       NO       
      PART-1-1.4251      0.000727941          12.2399          163.387       NO       
      PART-1-1.4260       0.00989363          22.5165          155.372       NO       
      PART-1-1.4261         0.010695          14.7742          149.483       NO       
      PART-1-1.4262         0.012602            15.25          150.791       NO       
      PART-1-1.4265      0.000605322          12.8186          164.592       NO       
      PART-1-1.4267       0.00771952          14.0011          154.298       NO       
      PART-1-1.4280       0.00841005          20.6101          155.361       NO       
      PART-1-1.4281       0.00836952           14.476          153.648       NO       
      PART-1-1.4285       0.00184769          16.7402          162.467       NO       
      PART-1-1.4286      0.000711894          14.1907          162.223       NO       
      PART-1-1.4291        0.0138628          20.9475          146.433       NO       
      PART-1-1.4292      0.000597962          10.1841          162.295       NO       
      PART-1-1.4294       0.00166454           12.255          155.246       NO       
      PART-1-1.4295       0.00652096          16.7231          155.922       NO       
      PART-1-1.4300       0.00799024          16.8759          150.917       NO       
      PART-1-1.4304      0.000485341           11.492          164.543       NO       
      PART-1-1.4314       0.00578081          19.0121          154.693       NO       
      PART-1-1.4321        0.0104601          11.2446          162.472       NO       
      PART-1-1.4330       0.00797235          14.7785          153.223       NO       
      PART-1-1.4333        0.0170458          23.1619          152.015       NO       
      PART-1-1.4338        0.0765611          8.98901          158.701       NO       
      PART-1-1.4340        0.0103998           22.603          155.233       NO       
      PART-1-1.4343       0.00679976          12.7391          155.481       NO       
      PART-1-1.4359       0.00312831          18.7027          159.868       NO       
      PART-1-1.4377       0.00292384          13.0769           153.71       NO       
      PART-1-1.4390       0.00273857          14.5266          159.345       NO       
      PART-1-1.4403        0.0148492          22.8937          152.406       NO       
      PART-1-1.4404       0.00263867          14.1796           159.29       NO       
      PART-1-1.4407       0.00163048          15.5226          160.885       NO       
      PART-1-1.4409       0.00960429          14.4539          153.529       NO       
      PART-1-1.4412       0.00173838          12.8353          159.902       NO       
      PART-1-1.4427       0.00723023          20.2275           156.03       NO       
      PART-1-1.4434       0.00173604          16.0708          162.299       NO       
      PART-1-1.4436        0.0017294          11.5658             159.       NO       
      PART-1-1.4437       0.00513815          15.0022          156.342       NO       
      PART-1-1.4442      0.000188485           11.376           166.63       NO       
      PART-1-1.4445      0.000194534          8.56513            165.1       NO       
      PART-1-1.4446       0.00512035          13.3696          152.393       NO       
      PART-1-1.4447       0.00537049          20.2433          157.357       NO       
      PART-1-1.4448       0.00166119          15.7599          158.975       NO       
      PART-1-1.4450      0.000388031          9.74238           160.51       NO       
      PART-1-1.4457      0.000195053          11.3039          168.434       NO       
      PART-1-1.4469       0.00176874          15.5481          158.892       NO       
      PART-1-1.4485       0.00200154          16.6685          161.458       NO       
      PART-1-1.4491       0.00857278          22.0032          155.954       NO       
      PART-1-1.4508       0.00742861          12.6059          156.174       NO       
      PART-1-1.4516        0.0102096          16.9311          153.076       NO       
      PART-1-1.4523      0.000149949          10.9709          169.113       NO       
      PART-1-1.4549        0.0122945          15.2105          151.974       NO       
      PART-1-1.4579        0.0174089          22.6247          151.776       NO       
      PART-1-1.4588      0.000936861          15.6856           163.64       NO       
      PART-1-1.4603       0.00126015           16.016          163.026       NO       
      PART-1-1.4605      4.90222E-05          9.24879          171.018       NO       
      PART-1-1.4606       0.00171751          15.8275          162.197       NO       
      PART-1-1.4607      0.000541921          13.1231          164.668       NO       
      PART-1-1.4616      0.000266821          12.2388          167.756       NO       
      PART-1-1.4619      0.000661373          14.6267          164.817       NO       
      PART-1-1.4632       0.00281157          18.0693          160.904       NO       
      PART-1-1.4651      0.000852177           14.007          163.348       NO       
      PART-1-1.4658       0.00358508          10.3635          161.477       NO       
      PART-1-1.4663        0.0132765          23.0134          154.261       NO       
      PART-1-1.4665       0.00477657          18.0919          156.032       NO       
      PART-1-1.4669       0.00575483          14.0446          151.057       NO       
      PART-1-1.4670        0.0128765          23.9921          153.302       NO       
      PART-1-1.4678       0.00296052          15.6573          163.613       NO       
      PART-1-1.4680      4.50172E-05          9.40371          169.741       NO       
      PART-1-1.4681      0.000559125           13.798          165.926       NO       
      PART-1-1.4686      0.000506665          10.2769          164.181       NO       
      PART-1-1.4689      6.92989E-05          10.2344          169.842       NO       
      PART-1-1.4693      0.000322348          9.12083          162.483       NO       
      PART-1-1.4694       0.00225788          12.6387          160.041       NO       
      PART-1-1.4695      0.000858365          10.9561          158.195       NO       
      PART-1-1.4699       0.00829888          7.87549           167.81       NO       
      PART-1-1.4700      0.000383141          12.5812          164.526       NO       
      PART-1-1.4704       0.00386922          12.5072          155.107       NO       
      PART-1-1.4707      0.000833392          10.6497          161.267       NO       
      PART-1-1.4710      0.000313573           12.633          167.352       NO       
      PART-1-1.4711       0.00400061          15.7973          157.211       NO       
      PART-1-1.4713      0.000836201          14.3073          164.563       NO       
      PART-1-1.4716        0.0124229          22.7882          153.601       NO       
      PART-1-1.4718      0.000827368          12.3989           162.72       NO       
      PART-1-1.4725        0.0139248          15.4379          151.381       NO       
      PART-1-1.4732       0.00919694          18.3945          154.322       NO       
      PART-1-1.4736        0.0158726          19.1485          151.149       NO       
      PART-1-1.4744        0.0156687          18.1421          151.495       NO       
      PART-1-1.4748        0.0195056          14.8567          150.284       NO       
      PART-1-1.4749      0.000381765          9.93553          160.116       NO       
      PART-1-1.4751          0.00455          13.5317          152.082       NO       
      PART-1-1.4752       0.00159147          11.6266          159.186       NO       
      PART-1-1.4753      0.000466303          11.6033          164.618       NO       
      PART-1-1.4754        0.0154679          16.4206          152.805       NO       
      PART-1-1.4755       0.00727773           21.196          156.852       NO       
      PART-1-1.4758      0.000496132          10.3941          159.221       NO       
      PART-1-1.4764        0.0151429          15.4447          148.608       NO       
      PART-1-1.4767       0.00178526          16.2107          160.682       NO       
      PART-1-1.4768       0.00115562          8.07456          167.451       NO       
      PART-1-1.4770      0.000321174            12.06          166.285       NO       
      PART-1-1.4771      0.000530897          9.75189          161.057       NO       
      PART-1-1.4772      0.000373733           13.368          166.182       NO       
      PART-1-1.4773       0.00908683          14.2346          152.651       NO       
      PART-1-1.4779        0.0271114          9.22819          159.847       NO       
      PART-1-1.4780      0.000188195          10.1499          166.632       NO       
[...]
     PART-1-1.34931        0.0276259          9.68552          160.079       NO       
     PART-1-1.34945        0.0055575          14.2014          159.288       NO       
     PART-1-1.34970        0.0077666          13.4468           155.15       NO       
     PART-1-1.35018      0.000674837          14.1294          162.398       NO       
     PART-1-1.35022       0.00291102          12.9139          154.457       NO       
     PART-1-1.35027      0.000577682          13.4633          165.607       NO       
     PART-1-1.35028       0.00801333          19.9332          156.121       NO       
     PART-1-1.35041         0.005146          16.3281          157.259       NO       
     PART-1-1.35147      1.23753E-05          6.74433          171.538       NO       
     PART-1-1.35213        0.0122533          15.4286          152.788       NO       
     PART-1-1.35215      0.000183188            9.882          167.067       NO       
     PART-1-1.35216        0.0130376          18.6022          152.346       NO       
     PART-1-1.35225      0.000377966          12.9338          166.341       NO       
     PART-1-1.35229      0.000235537          12.2087          165.842       NO       
     PART-1-1.35231      0.000480534          10.2453          159.126       NO       
     PART-1-1.35234       0.00167981          15.7706          162.448       NO       
     PART-1-1.35236       0.00209693          16.0271           157.98       NO       
     PART-1-1.35239       0.00167327          11.4687          159.482       NO       
     PART-1-1.35261        0.0180246          13.9102          152.004       NO       
     PART-1-1.35264       0.00392815          16.4452          160.159       NO       
     PART-1-1.35269       0.00433917          13.9218          150.952       NO       
     PART-1-1.35270       0.00187179          16.0138           158.74       NO       
     PART-1-1.35271       0.00564445          12.6831          151.641       NO       
     PART-1-1.35288       4.2593E-05          9.39276          169.803       NO       
     PART-1-1.35289      4.02708E-05          8.79799          171.292       NO       
     PART-1-1.35357       0.00172838          16.6347          160.048       NO       
     PART-1-1.35363        0.0017782          15.8868          158.695       NO       
     PART-1-1.35364       0.00177064          16.2375          162.088       NO       
     PART-1-1.35387        0.0207432          8.56239          158.307       NO       
     PART-1-1.35390       0.00133741          12.6634          160.913       NO       
     PART-1-1.35399         0.027623          9.68513           160.08       NO       
     PART-1-1.35409       0.00555759          14.2014          159.288       NO       
     PART-1-1.35417         0.012566          14.9497          145.863       NO       
     PART-1-1.35463       0.00754361          18.9983          153.594       NO       
     PART-1-1.35474       0.00575793           18.201          157.005       NO       
     PART-1-1.35505       0.00709163          16.5636          155.171       NO       
     PART-1-1.35513       0.00472926          13.2758          156.953       NO       
     PART-1-1.35527        0.0107397          21.8524          150.255       NO       
     PART-1-1.35532       0.00562929          14.8352          156.512       NO       
     PART-1-1.35536        0.0162675          15.9702           147.97       NO       
     PART-1-1.35549         0.010583          24.4329           144.87       NO       
     PART-1-1.35625       0.00398526           12.845          160.518       NO       
     PART-1-1.35631        0.0122243          19.9312          154.947       NO       
     PART-1-1.35708       0.00963016          17.2424           153.15       NO       
     PART-1-1.35717        0.0142112          11.2665          153.118       NO       
     PART-1-1.35724       0.00635359          18.7188          156.411       NO       
     PART-1-1.35728        0.0185878          8.30364          158.961       NO       
     PART-1-1.35738        0.0167915          14.7919          152.208       NO       
     PART-1-1.35770        0.0173834          17.6173          146.241       NO       
     PART-1-1.35781        0.0162508          21.0072          155.581       NO       
     PART-1-1.35803       0.00892678          34.1682          155.274       NO       
     PART-1-1.35823       0.00621925          6.69938          164.244       NO       
     PART-1-1.35825        0.0105905          11.5918          157.112       NO       
     PART-1-1.35826       0.00617375          11.7822           144.32       NO       
     PART-1-1.35840        0.0160981          24.6535          147.614       NO       
     PART-1-1.35878        0.0038326          13.3039          157.611       NO       
     PART-1-1.35887        0.0148603          11.3035          158.742       NO       
     PART-1-1.35888        0.0140838          26.0577          147.922       NO       
     PART-1-1.35889       0.00926227          14.3295          156.183       NO       
     PART-1-1.35911       0.00634234          18.7107          156.415       NO       
     PART-1-1.35915        0.0185951          8.30524          158.946       NO       
     PART-1-1.35922        0.0148725          19.6103          148.916       NO       
     PART-1-1.35954        0.0851928          6.78655          164.319       NO       
     PART-1-1.35956        0.0170002          16.6969          144.182       NO       
     PART-1-1.35963        0.0117102          4.99763          169.433       NO       
     PART-1-1.35964        0.0130202          15.6322          158.866       NO       
     PART-1-1.35965        0.0128392          6.81293          164.368       NO       
     PART-1-1.35968        0.0198998          21.1357          149.872       NO       
     PART-1-1.36023       0.00379139          13.2566          157.667       NO       
     PART-1-1.36043       0.00590744          12.2206          156.638       NO       
     PART-1-1.36075       0.00950904          14.0055          154.051       NO       
     PART-1-1.36076       0.00344625          18.6697          159.732       NO       
     PART-1-1.36077       0.00340129          16.7901          159.524       NO       
     PART-1-1.36100        0.0247224           7.2614          161.089       NO       
     PART-1-1.36102         0.100003          7.61687          161.221       NO       
     PART-1-1.36115       0.00154469          13.9486           155.61       NO       
     PART-1-1.36137       0.00895182           13.276          158.371       NO       
     PART-1-1.36140        0.0110085          10.5425          160.946       NO       
     PART-1-1.36148        0.0161953          20.9961          155.596       NO       
     PART-1-1.36164        0.0102573          11.7261          155.759       NO       
     PART-1-1.36165       0.00388385          18.8371          157.597       NO       
     PART-1-1.36166        0.0026947          14.0106          161.451       NO       
     PART-1-1.36172        0.0037954          13.2623          157.659       NO       
     PART-1-1.36256        0.0184814          18.3248          150.941       NO       
     PART-1-1.36257        0.0178775          18.0788          157.949       NO       
     PART-1-1.36277       0.00635873          18.7208          156.404       NO       
     PART-1-1.36281        0.0185659          8.30341          158.958       NO       
     PART-1-1.36288        0.0161731          20.9835          155.608       NO       
     PART-1-1.36311        0.0114626          23.8514          150.888       NO       
     PART-1-1.36312        0.0102557          19.6837          151.322       NO       
     PART-1-1.36331        0.0124538            20.21          154.441       NO       
     PART-1-1.36332        0.0109138          12.6035          159.508       NO       
     PART-1-1.36334       0.00830028           30.889          144.948       NO       
     PART-1-1.36358        0.0233936          7.24393          161.082       NO       
     PART-1-1.36360        0.0950156          7.58643          161.459       NO       
     PART-1-1.36363        0.0045825          14.4657          159.396       NO       
     PART-1-1.36367         0.026195          9.91171          158.442       NO       
     PART-1-1.36512         0.105836          7.53829          160.838       NO       
     PART-1-1.36515        0.0276921          7.42758          160.827       NO       
     PART-1-1.36517         0.105032          7.63124          160.883       NO       
     PART-1-1.36536        0.0194997          15.1142          141.027       NO       
     PART-1-1.36589       0.00956904          17.2056          153.184       NO       
     PART-1-1.36619       0.00942584            28.88          155.707       NO       
     PART-1-1.36693       0.00604981          12.9802          155.991       NO       
     PART-1-1.36725       0.00636547          18.7242            156.4       NO       
     PART-1-1.36729        0.0185482          8.30159          158.965       NO       
     PART-1-1.36770       0.00720821          20.8426          153.226       NO       
     PART-1-1.36877        0.0176435          20.7097          153.339       NO       
     PART-1-1.37080        0.0122619          16.3401           155.67       NO       
     PART-1-1.37100        0.0309738          7.55509          160.909       NO       
     PART-1-1.37102         0.119219          7.88695          159.661       NO       
     PART-1-1.37136         0.010875          14.8763          147.622       NO       
     PART-1-1.37185       0.00398671          10.9169          160.556       NO       
     PART-1-1.37226         0.014671          15.8155          151.215       NO       
     PART-1-1.37236       0.00555728          13.4827          158.899       NO       
     PART-1-1.37246      5.83913E-09        0.0044722          179.992       NO       
     PART-1-1.37275       0.00555716          13.4827          158.899       NO       
     PART-1-1.37304        0.0055526          13.4718          158.908       NO       
     PART-1-1.37345       0.00375421          10.6472          160.878       NO       
     PART-1-1.37422        0.0191714          16.8516          157.435       NO       
     PART-1-1.37474        0.0148708          19.6061          148.918       NO       
     PART-1-1.37591        0.0154042          16.6959          142.404       NO       
     PART-1-1.37595       0.00555252          13.4718          158.908       NO       
     PART-1-1.37634       0.00295593          15.7698          156.058       NO       
     PART-1-1.37635       0.00316295          13.4092          156.266       NO       
     PART-1-1.37697       0.00555613          13.4821            158.9       NO       
     PART-1-1.37774        0.0103538          18.2671          151.336       NO       
     PART-1-1.37779        0.0121866          14.3709          150.093       NO       
     PART-1-1.37861         0.019026          21.7977          150.288       NO       
     PART-1-1.37875        0.0121511          12.7212          137.759       NO       
     PART-1-1.37895        0.0165759          16.3442           152.16       NO       
     PART-1-1.37899        0.0106174          19.9556          151.334       NO       
     PART-1-1.37904       0.00555766           13.483          158.899       NO       
     PART-1-1.37948         0.014859          18.8633          154.201       NO       
     PART-1-1.37996       0.00555453          13.4734          158.907       NO       
     PART-1-1.38014       0.00564227           12.423          157.973       NO       
     PART-1-1.38072        0.0133131          15.9048          151.954       NO       
     PART-1-1.38129       0.00555619          13.4747          158.904       NO       
     PART-1-1.38162       0.00614897          14.3201          159.029       NO       
     PART-1-1.38169       0.00409566          11.0481          160.397       NO       
     PART-1-1.38189        0.0179485          17.0938          152.482       NO       
     PART-1-1.38285       0.00895012          13.2552          158.392       NO       
     PART-1-1.38288        0.0110285          10.5459          160.952       NO       
     PART-1-1.38346       0.00484886          10.2816          158.576       NO       
     PART-1-1.38366        0.0019486          14.5519          160.705       NO       
     PART-1-1.38400        0.0145934          18.8602          154.107       NO       
     PART-1-1.38416        0.0169686          10.5716          152.511       NO       
     PART-1-1.38472       0.00555348          13.4722          158.907       NO       
     PART-1-1.38493        0.0156337            22.93          152.027       NO       
     PART-1-1.38495       0.00830413          11.1744          163.907       NO       
     PART-1-1.38529       0.00555884          13.4772          158.902       NO       
     PART-1-1.38545       0.00465526            12.97          159.068       NO       
     PART-1-1.38582        0.0184627          22.7802          141.871       NO       
     PART-1-1.38635       0.00616113          14.3261          159.013       NO       
     PART-1-1.38768       0.00386452          10.8049          160.696       NO       
     PART-1-1.38853        0.0165377          20.5487          151.143       NO       
     PART-1-1.38912       0.00205849          12.8988          157.756       NO       
     PART-1-1.38921       0.00261758           12.234          144.575       NO       
     PART-1-1.39136        0.0123613          19.6899          154.427       NO       
     PART-1-1.39137       0.00834908          12.1679          160.096       NO       
     PART-1-1.39138        0.0083252          13.5713          150.835       NO       
     PART-1-1.39170       0.00119462          14.0441          166.109       NO       
     PART-1-1.39190      1.05184E-05          3.60644          175.512       NO       
     PART-1-1.39191      0.000141525          5.58051           168.96       NO       
     PART-1-1.39192      0.000461075          10.7514          170.032       NO       
     PART-1-1.39193        0.0443483           9.9687          139.846       NO       
     PART-1-1.39194        0.0121798          8.10342          159.728       NO       
     PART-1-1.39195         0.011815          4.48902          171.897       NO       
     PART-1-1.39197      0.000274861          13.1193          168.298       NO       
     PART-1-1.39205      0.000790507          12.8773          138.724       NO       
     PART-1-1.39239        0.0171071           12.684          162.654       NO       
     PART-1-1.39248        0.0067171          15.7516          153.563       NO       
     PART-1-1.39249       0.00546369          11.2326          156.466       NO       
     PART-1-1.39252      0.000764738          10.8342          163.004       NO       
     PART-1-1.39328        0.0125013           17.947          147.672       NO       
     PART-1-1.39348       0.00102523          10.7804          161.516       NO       
     PART-1-1.39349        0.0188493          19.4925          144.657       NO       
     PART-1-1.39373        0.0138543           11.151          159.068       NO       
     PART-1-1.39374         0.014245          26.2097          147.809       NO       
     PART-1-1.39375       0.00933315          14.3206          156.162       NO       
     PART-1-1.39441         0.016336          25.0073          148.644       NO       
     PART-1-1.39456        0.0670625          6.90713          128.957       NO       
     PART-1-1.39458        0.0147503          15.8523           151.16       NO       
     PART-1-1.39530       0.00231932          11.5143          165.198       NO       
     PART-1-1.39531       0.00229585          6.04023          167.117       NO       
     PART-1-1.39540       0.00537481          17.4057            158.1       NO       
     PART-1-1.39543         0.028381          9.49957          157.128       NO       
  
  
 --------------------------------------------------------------------------------
 Elements with small volume
  
      Element       Adjusted nodes 
 ------------------ -------------- 
      PART-1-1.9378       NO       
     PART-1-1.24952       NO       
     PART-1-1.29226       NO       
     PART-1-1.29234       NO       
     PART-1-1.30334       NO       
     PART-1-1.31222       NO       
  
  *Step, name=Step-1, nlgeom=NO, perturbation
  *output, field, variable=PRESELECT
  *Step, name=Step-1, nlgeom=NO, perturbation

 ***ERROR: NODE SET ASSEMBLY_BOTTOM_SET_PIN HAS NOT BEEN DEFINED

 ***ERROR: NODE SET ASSEMBLY_BOTTOM_SET_PIN HAS NOT BEEN DEFINED

 ***ERROR: NODE SET ASSEMBLY_TOP_SET_PIN HAS NOT BEEN DEFINED

 ***ERROR: NODE SET ASSEMBLY_TOP_SET_PIN HAS NOT BEEN DEFINED

 ***ERROR: NODE SET ASSEMBLY_TOP_SET_PIN HAS NOT BEEN DEFINED

 ***ERROR: NODE SET ASSEMBLY_TOP_SET_PIN HAS NOT BEEN DEFINED
  *Step, name=Step-1, nlgeom=NO, perturbation
  *buckle
  *boundary, op=NEW, loadcase=1
  *boundary, op=NEW, loadcase=2
  *boundary, op=NEW, loadcase=1
  *boundary, op=NEW, loadcase=2
  *dsload

 ***ERROR: THE SURFACE ASSEMBLY_TOP_SURFACE HAS NOT BEEN LOCATED
 LINE IMAGE: ASSEMBLY_TOP_SURFACE, P, 1.
  *output, field, variable=PRESELECT
  *endstep
  *Step, name=Step-1, nlgeom=NO, perturbation
  *buckle
  *buckle
  *boundary, op=NEW, loadcase=1

 ***ERROR: A BOUNDARY CONDITION HAS BEEN SPECIFIED ON NODE SET 
           ASSEMBLY_BOTTOM_SET_PIN BUT THIS NODE SET IS NOT ACTIVE IN THE MODEL
  *boundary, op=NEW, loadcase=2

 ***ERROR: A BOUNDARY CONDITION HAS BEEN SPECIFIED ON NODE SET 
           ASSEMBLY_BOTTOM_SET_PIN BUT THIS NODE SET IS NOT ACTIVE IN THE MODEL
  *boundary, op=NEW, loadcase=1

 ***ERROR: A BOUNDARY CONDITION HAS BEEN SPECIFIED ON NODE SET 
           ASSEMBLY_TOP_SET_PIN BUT THIS NODE SET IS NOT ACTIVE IN THE MODEL

 ***ERROR: A BOUNDARY CONDITION HAS BEEN SPECIFIED ON NODE SET 
           ASSEMBLY_TOP_SET_PIN BUT THIS NODE SET IS NOT ACTIVE IN THE MODEL
  *boundary, op=NEW, loadcase=2

 ***ERROR: A BOUNDARY CONDITION HAS BEEN SPECIFIED ON NODE SET 
           ASSEMBLY_TOP_SET_PIN BUT THIS NODE SET IS NOT ACTIVE IN THE MODEL

 ***ERROR: A BOUNDARY CONDITION HAS BEEN SPECIFIED ON NODE SET 
           ASSEMBLY_TOP_SET_PIN BUT THIS NODE SET IS NOT ACTIVE IN THE MODEL
  *endstep

 ***ERROR: NODE SET ASSEMBLY_BOTTOM_SET_PIN HAS NOT BEEN DEFINED

 ***ERROR: NODE SET ASSEMBLY_BOTTOM_SET_PIN HAS NOT BEEN DEFINED

 ***ERROR: NODE SET ASSEMBLY_TOP_SET_PIN HAS NOT BEEN DEFINED

 ***ERROR: NODE SET ASSEMBLY_TOP_SET_PIN HAS NOT BEEN DEFINED

 ***ERROR: NODE SET ASSEMBLY_TOP_SET_PIN HAS NOT BEEN DEFINED

 ***ERROR: NODE SET ASSEMBLY_TOP_SET_PIN HAS NOT BEEN DEFINED



                            P R O B L E M   S I Z E


          NUMBER OF ELEMENTS IS                                 39548
          NUMBER OF ELEMENTS DEFINED BY THE USER AND *TIE       39546
          NUMBER OF NODES IS                                    16873
          NUMBER OF NODES DEFINED BY THE USER                   16873
          TOTAL NUMBER OF VARIABLES IN THE MODEL                50625
          (DEGREES OF FREEDOM PLUS MAX NO. OF ANY LAGRANGE MULTIPLIER
           VARIABLES. INCLUDE *PRINT,SOLVE=YES TO GET THE ACTUAL NUMBER.)





          THE PROGRAM HAS DISCOVERED    41 FATAL ERRORS

               ** EXECUTION IS TERMINATED **

 ***ERROR: Failed to locate set "ASSEMBLY_TOP_SET_PIN".



                              END OF USER INPUT PROCESSING



     JOB TIME SUMMARY
       USER TIME (SEC)      =   1.6000    
       SYSTEM TIME (SEC)    =  0.60000    
       TOTAL CPU TIME (SEC) =   2.2000    
       WALLCLOCK TIME (SEC) =          3
