1

   Abaqus 3DEXPERIENCE R2019x                                  Date 01-May-2020   Time 21:25:50
   For use by TEXAS A_M UNIVERSITY SYSTEM under license from Dassault Systemes or its subsidiary.



                         The Abaqus Software is a product of:

                           Dassault Systemes SIMULIA Corp.
                           1301 Atwood Avenue, Suite 101W
                              Johnston, RI 02919, USA
 


                   The Abaqus Software is available only under license
                   from Dassault Systemes or its subsidiary and may be
                   used or reproduced only in accordance with the terms
                   of such license.
 
                          On machine AERO-MJ09CBE4 
                          you are authorized to run
                          Abaqus/Standard until 11-Jul-2021

                          Your site id is: 200000000002185 


 
                    For assistance or any other information you may
                    obtain contact information for your local office
                    from the world wide web at:

                      http://www.3ds.com/products/simulia/locations/

 
                * * * * * * * * * * * * * * * * * * * * * * * * * * * * * * 
                *                                                         * 
                *                   *****************                     * 
                *                   *  N O T I C E  *                     * 
                *                   *****************                     * 
                *                                                         * 
                *                                                         * 
                *               Abaqus 3DEXPERIENCE R2019x                * 
                *                                                         * 
                *          BUILD ID: 2018_09_24-13.41.51 157541           * 
                *                                                         * 
                *                                                         * 
                *  Please make sure you are using                         * 
                *  release 3DEXPERIENCE R2019x manuals                    * 
                *  plus the notes accompanying this release.              * 
                *                                                         * 
                *                                                         * 
                *                                                         * 
                *                                                         * 
                *                                                         * 
                *   This program may not be used for commercial purposes  * 
                *           without payment of a commercial fee.          * 
                *                                                         * 
                * * * * * * * * * * * * * * * * * * * * * * * * * * * * * * 


 



     PROCESSING PART, INSTANCE, AND ASSEMBLY INFORMATION
   *******************************************************


 ***ERROR: in keyword *RIGIDBODY, file "Buckling_job_9.inp", line 118079: 
           Unknown assembly set TOP_SET_PIN
 ***NOTE: DUE TO AN INPUT ERROR THE ANALYSIS PRE-PROCESSOR HAS BEEN UNABLE TO 
          INTERPRET SOME DATA.  SUBSEQUENT ERRORS MAY BE CAUSED BY THIS OMISSION

 ***ERROR: in keyword *RIGIDBODY, file "Buckling_job_9.inp", line 118081: 
           Unknown assembly set BOTTOM_SET_PIN

 ***ERROR: in keyword *BOUNDARY, file "Buckling_job_9.inp", line 118103: 
           Unknown assembly node set BOTTOM_SET_PIN

 ***ERROR: in keyword *BOUNDARY, file "Buckling_job_9.inp", line 118105: 
           Unknown assembly node set BOTTOM_SET_PIN

 ***ERROR: in keyword *BOUNDARY, file "Buckling_job_9.inp", line 118108: 
           Unknown assembly node set TOP_SET_PIN

 ***ERROR: in keyword *BOUNDARY, file "Buckling_job_9.inp", line 118108: 
           Unknown assembly node set TOP_SET_PIN

 ***ERROR: in keyword *BOUNDARY, file "Buckling_job_9.inp", line 118111: 
           Unknown assembly node set TOP_SET_PIN

 ***ERROR: in keyword *BOUNDARY, file "Buckling_job_9.inp", line 118111: 
           Unknown assembly node set TOP_SET_PIN

     END PROCESSING PART, INSTANCE, AND ASSEMBLY INFORMATION
   ***********************************************************




     OPTIONS BEING PROCESSED
   ***************************


  *Heading
  *Node
  *Element, type=C3D4
  *Nset, nset=ASSEMBLY_PART-1-1_FIBRE_SET2
  *Nset, nset=ASSEMBLY_PART-1-1_FIBRE_SET3
  *Nset, nset=ASSEMBLY_PART-1-1_FIBRE_SET4
  *Nset, nset=ASSEMBLY_PART-1-1_FIBRE_SET5
  *Elset, elset=ASSEMBLY_PART-1-1_FIBRE_SET2
  *Elset, elset=ASSEMBLY_PART-1-1_FIBRE_SET3
  *Elset, elset=ASSEMBLY_PART-1-1_FIBRE_SET4
  *Elset, elset=ASSEMBLY_PART-1-1_FIBRE_SET5
  *Node
  *Nset, nset=ASSEMBLY__PICKEDSET19
  *Nset, nset=ASSEMBLY__PICKEDSET21

 ***WARNING: BUCKLE OPTION IS NOT SUPPORTED FOR ELEMENT LOOP PARALLELIZATION. 
             IF YOU HAVE SPECIFIED ELEMENT LOOP PARALLELIZATION, IT WILL BE 
             TURNED OFF FOR THIS ANALYSIS.
 LINE IMAGE: *buckle
  *material, name=FIBRE_MATERIAL
  *elastic
  *material, name=MATRIX_MATERIAL
  *elastic
  *solidsection, elset=ASSEMBLY_PART-1-1_FIBRE_SET2, material=FIBRE_MATERIAL
  *solidsection, elset=ASSEMBLY_PART-1-1_FIBRE_SET3, material=FIBRE_MATERIAL
  *solidsection, elset=ASSEMBLY_PART-1-1_FIBRE_SET4, material=FIBRE_MATERIAL
  *solidsection, elset=ASSEMBLY_PART-1-1_FIBRE_SET5, material=FIBRE_MATERIAL
  *solidsection, elset=ASSEMBLY_PART-1-1_FIBRE_SET2, material=FIBRE_MATERIAL
  *solidsection, elset=ASSEMBLY_PART-1-1_FIBRE_SET3, material=FIBRE_MATERIAL
  *solidsection, elset=ASSEMBLY_PART-1-1_FIBRE_SET4, material=FIBRE_MATERIAL
  *solidsection, elset=ASSEMBLY_PART-1-1_FIBRE_SET5, material=FIBRE_MATERIAL
  *rigidbody, refnode=ASSEMBLY__PICKEDSET19, pinnset=ASSEMBLY_TOP_SET_PIN
  *rigidbody, refnode=ASSEMBLY__PICKEDSET21, pinnset=ASSEMBLY_BOTTOM_SET_PIN
  *rigidbody, refnode=ASSEMBLY__PICKEDSET19, pinnset=ASSEMBLY_TOP_SET_PIN
  *rigidbody, refnode=ASSEMBLY__PICKEDSET21, pinnset=ASSEMBLY_BOTTOM_SET_PIN
  *rigidbody, refnode=ASSEMBLY__PICKEDSET19, pinnset=ASSEMBLY_TOP_SET_PIN
  *rigidbody, refnode=ASSEMBLY__PICKEDSET21, pinnset=ASSEMBLY_BOTTOM_SET_PIN
  *rigidbody, refnode=ASSEMBLY__PICKEDSET19, pinnset=ASSEMBLY_TOP_SET_PIN

 ***ERROR: NODE SET ASSEMBLY_TOP_SET_PIN HAS NOT BEEN DEFINED
  *rigidbody, refnode=ASSEMBLY__PICKEDSET21, pinnset=ASSEMBLY_BOTTOM_SET_PIN

 ***ERROR: NODE SET ASSEMBLY_BOTTOM_SET_PIN HAS NOT BEEN DEFINED
  *rigidbody, refnode=ASSEMBLY__PICKEDSET19, pinnset=ASSEMBLY_TOP_SET_PIN

 ***ERROR: NODE SET ASSEMBLY_TOP_SET_PIN HAS NOT BEEN DEFINED

 ***ERROR: UNABLE TO LOCATE NODE SET ASSEMBLY_TOP_SET_PIN. THE NODE SET MUST 
           HAVE BEEN PREVIOUSLY DEFINED. NODES IN THIS NODE SET WILL NOT BE 
           PART OF RIGID BODY
 LINE IMAGE: *rigidbody, refnode=ASSEMBLY__PICKEDSET19, 
             pinnset=ASSEMBLY_TOP_SET_PIN
  *rigidbody, refnode=ASSEMBLY__PICKEDSET21, pinnset=ASSEMBLY_BOTTOM_SET_PIN

 ***ERROR: NODE SET ASSEMBLY_BOTTOM_SET_PIN HAS NOT BEEN DEFINED

 ***ERROR: UNABLE TO LOCATE NODE SET ASSEMBLY_BOTTOM_SET_PIN. THE NODE SET MUST 
           HAVE BEEN PREVIOUSLY DEFINED. NODES IN THIS NODE SET WILL NOT BE 
           PART OF RIGID BODY
 LINE IMAGE: *rigidbody, refnode=ASSEMBLY__PICKEDSET21, 
             pinnset=ASSEMBLY_BOTTOM_SET_PIN

 ***ERROR: SURFACE DEFINITION ASSEMBLY_TOP_SURFACE NOT FOUND.
  *rigidbody, refnode=ASSEMBLY__PICKEDSET19, pinnset=ASSEMBLY_TOP_SET_PIN
  *rigidbody, refnode=ASSEMBLY__PICKEDSET21, pinnset=ASSEMBLY_BOTTOM_SET_PIN
  *rigidbody, refnode=ASSEMBLY__PICKEDSET19, pinnset=ASSEMBLY_TOP_SET_PIN

 ***ERROR: NODE SET ASSEMBLY_TOP_SET_PIN HAS NOT BEEN DEFINED

 ***ERROR: UNABLE TO LOCATE NODE SET ASSEMBLY_TOP_SET_PIN. THE NODE SET MUST 
           HAVE BEEN PREVIOUSLY DEFINED. NODES IN THIS NODE SET WILL NOT BE 
           PART OF RIGID BODY
 LINE IMAGE: *rigidbody, refnode=ASSEMBLY__PICKEDSET19, 
             pinnset=ASSEMBLY_TOP_SET_PIN
  *rigidbody, refnode=ASSEMBLY__PICKEDSET21, pinnset=ASSEMBLY_BOTTOM_SET_PIN

 ***ERROR: NODE SET ASSEMBLY_BOTTOM_SET_PIN HAS NOT BEEN DEFINED

 ***ERROR: UNABLE TO LOCATE NODE SET ASSEMBLY_BOTTOM_SET_PIN. THE NODE SET MUST 
           HAVE BEEN PREVIOUSLY DEFINED. NODES IN THIS NODE SET WILL NOT BE 
           PART OF RIGID BODY
 LINE IMAGE: *rigidbody, refnode=ASSEMBLY__PICKEDSET21, 
             pinnset=ASSEMBLY_BOTTOM_SET_PIN
  *boundary, op=NEW, loadcase=1
  *boundary, op=NEW, loadcase=2
  *boundary, op=NEW, loadcase=1
  *boundary, op=NEW, loadcase=2
  *boundary, op=NEW, loadcase=1
  *boundary, op=NEW, loadcase=2
  *boundary, op=NEW, loadcase=1
  *boundary, op=NEW, loadcase=2
  *rigidbody, refnode=ASSEMBLY__PICKEDSET19, pinnset=ASSEMBLY_TOP_SET_PIN
  *rigidbody, refnode=ASSEMBLY__PICKEDSET21, pinnset=ASSEMBLY_BOTTOM_SET_PIN
  *output, field, variable=PRESELECT
  *output, field, variable=PRESELECT
  *output, field, variable=PRESELECT

 ***ERROR: NODE SET ASSEMBLY_TOP_SET_PIN HAS NOT BEEN DEFINED

 ***ERROR: NODE SET ASSEMBLY_BOTTOM_SET_PIN HAS NOT BEEN DEFINED
  
                               E L E M E N T   Q U A L I T Y  C H E C K S        
  
  
 ***NOTES: DISTORTED ISOPARAMETRIC ELEMENTS: ANGLE BETWEEN ISOPARAMETRIC LINES 
           IS LESS THAN 45 DEGREES OR GREATER THAN 135 DEGREES.
  
           TETRAHEDRAL QUALITY MEASURE: VOLUME OF TETRAHEDRON DIVIDED BY THE 
           VOLUME OF EQUILATERAL TETRAHEDRON WITH SAME CIRCUMSPHERE RADIUS; 
           0 FOR DEGENERATE TETRAHEDRON AND 1 FOR EQUILATERIAL TETRAHEDRON. IT 
           IS RECOMMENDED THAT THE TETRAHEDRAL QUALITY MEASURE BE GREATER THAN 
           0.02, THE MIN INTERIOR (DIHEDRAL) ANGLE BE GREATER THAN 10 DEGREES, 
           AND THE MAX INTERIOR (DIHEDRAL) ANGLE BE LESS THAN 160 DEGREES. 
  
           MODIFIED TETRAHEDRAL QUALITY MEASURE: ANGLES BETWEEN THE TWO LINE 
           SEGMENTS ON EACH EDGE; THE EDGES OF MODIFIED TETRAHEDRAL SHOULD BE 
           AS STRAIGHT AS POSSIBLE. IT IS RECOMMENDED THAT THE ANGLE BETWEEN 
           THE TWO LINE SEGMENTS ON EACH EDGE IS BETWEEN 160 AND 180 DEGREES. 
  
           TRIANGULAR QUALITY MEASURE: AREA OF TRIANGLE DIVIDED BY THE AREA OF 
           EQUILATERAL TRIANGLE WITH SAME CIRCUMCIRCLE RADIUS; 0 FOR DEGENERATE 
           TRIANGLE AND 1 FOR EQUILATERAL TRIANGLE. IT IS RECOMMENDED THAT THE
           TRIANGULAR QUALITY MEASURE BE GREATER THAN 0.01, THE MIN INTERIOR 
           ANGLE BE GREATER THAN 10 DEGREES, AND THE MAX INTERIOR ANGLE BE LESS 
           THAN 160 DEGREES. 
  
           NODAL ADJUSTMENTS ARISING FROM CONTACT INTERACTIONS AND/OR TIE 
           CONSTRAINTS CAN CAUSE SEVERE ELEMENT DISTORTION. IT MAY BE NECESSARY 
           TO REMESH IN ORDER TO REDUCE THE AMOUNT OF ADJUSTMENT. 

 ***WARNING: 1015 elements are distorted. Either the isoparametric angles are 
             out of the suggested limits or the triangular or tetrahedral 
             quality measure is bad. The elements have been identified in 
             element set WarnElemDistorted.

 ***ERROR: The volume of 43 elements is zero, small, or negative. Check 
           coordinates or node numbering, or modify the mesh seed. In the case 
           of a tetrahedron this error may indicate that all nodes are located 
           very nearly in a plane. The elements have been identified in element 
           set ErrElemVolSmallNegZero.
  
 --------------------------------------------------------------------------------
 Distorted tetrahedral elements
  
      Element       Quality measure     Min angle        Max angle     Adjusted nodes 
 ------------------ ---------------- ---------------- ---------------- -------------- 
         PART-1-1.6        0.0134009          16.5956          155.134       NO       
        PART-1-1.16         0.019302          22.8433          150.927       NO       
        PART-1-1.17        0.0132839           16.384          155.003       NO       
        PART-1-1.18       0.00192243           12.844          162.028       NO       
        PART-1-1.43        0.0137992          12.6462          154.098       NO       
        PART-1-1.44       0.00913101          17.8063          157.636       NO       
        PART-1-1.46      0.000575349          12.5767          163.917       NO       
        PART-1-1.47      0.000467755          10.1832          165.797       NO       
        PART-1-1.48       0.00056446          12.7397          166.342       NO       
        PART-1-1.51       0.00135357          14.2051          163.763       NO       
        PART-1-1.59        0.0029271          13.1054          160.499       NO       
        PART-1-1.61        0.0126266          19.5009          155.216       NO       
        PART-1-1.63       0.00252549          10.5553          160.002       NO       
        PART-1-1.64        0.0125373          12.1362          152.527       NO       
        PART-1-1.65        0.0112231          11.4237            156.2       NO       
        PART-1-1.99       0.00381143          9.31984          160.679       NO       
       PART-1-1.102       0.00496375          13.3928          158.072       NO       
       PART-1-1.105       0.00291847          14.9941          161.837       NO       
       PART-1-1.118       0.00203477          11.6774          162.193       NO       
       PART-1-1.213        0.0196407          20.9516          143.903       NO       
       PART-1-1.217        0.0018518          14.8738          159.335       NO       
       PART-1-1.268       0.00144323          14.1183          163.772       NO       
       PART-1-1.270      0.000522943          8.71358          164.328       NO       
       PART-1-1.271      0.000614742           12.954          166.513       NO       
       PART-1-1.273      0.000980098          13.2015          165.195       NO       
       PART-1-1.274      0.000480545          10.0216          165.883       NO       
       PART-1-1.325      3.73946E-16       0.00365399          179.995       NO       
       PART-1-1.331      6.53978E-25      2.35059E-05             180.       NO       
       PART-1-1.334      6.26853E-25      2.35059E-05             180.       NO       
       PART-1-1.414        0.0144546          12.8806          153.918       NO       
       PART-1-1.423        0.0163863          17.0884          153.913       NO       
       PART-1-1.435       0.00176954          14.9777          162.799       NO       
       PART-1-1.445       0.00318405          16.9379          161.147       NO       
       PART-1-1.457       0.00345464          10.3625          158.773       NO       
       PART-1-1.459        0.0153642          21.5729          154.156       NO       
       PART-1-1.460        0.0115486          12.2981           156.02       NO       
       PART-1-1.461        0.0130295           19.979          155.064       NO       
       PART-1-1.463       0.00276936          16.0529           161.36       NO       
       PART-1-1.493      4.55067E-22      0.000121236             180.       NO       
       PART-1-1.505      4.00312E-31      -1.7053E-13             180.       NO       
       PART-1-1.523      0.000671989          10.3891          164.768       NO       
       PART-1-1.539      6.07866E-16       0.00412427          179.994       NO       
       PART-1-1.552      4.28958E-16       0.00378065          179.995       NO       
       PART-1-1.586      4.20712E-16       0.00376255          179.995       NO       
       PART-1-1.611        0.0109863          12.2397           154.72       NO       
       PART-1-1.622       2.2486E-17       0.00180892          179.998       NO       
       PART-1-1.672        0.0180838          17.5591          153.472       NO       
       PART-1-1.683       0.00610942          13.9083          157.242       NO       
       PART-1-1.691       0.00262054          15.9929          157.457       NO       
       PART-1-1.701        0.0197625          21.6154          153.175       NO       
       PART-1-1.793       0.00417051          17.0155          160.813       NO       
       PART-1-1.813        0.0142914          17.2054          154.852       NO       
       PART-1-1.836        0.0155187          16.4693           154.53       NO       
       PART-1-1.871        0.0114985          16.1797          155.963       NO       
       PART-1-1.900       0.00365433          17.3612          160.837       NO       
       PART-1-1.922        0.0165645          21.1013           154.03       NO       
       PART-1-1.926       0.00388386          13.6476          158.898       NO       
       PART-1-1.998        0.0102345           17.601          157.368       NO       
      PART-1-1.1004        0.0133632          19.5736          154.953       NO       
      PART-1-1.1005       0.00304087          13.1497          160.427       NO       
      PART-1-1.1007        0.0027354          10.6976          159.737       NO       
      PART-1-1.1009       0.00338579          17.1369          161.049       NO       
      PART-1-1.1027       0.00258165          15.8281          157.589       NO       
      PART-1-1.1028       0.00320006          11.0714          158.024       NO       
      PART-1-1.1029        0.0159829          16.9258          154.161       NO       
      PART-1-1.1099        0.0171735          16.2257          154.153       NO       
      PART-1-1.1119       0.00266217          13.1987          160.693       NO       
      PART-1-1.1139       0.00788402          14.8572          155.351       NO       
      PART-1-1.1147       0.00267986          15.1378             163.       NO       
      PART-1-1.1171      3.59681E-16        0.0036178          179.995       NO       
      PART-1-1.1296         0.010063          17.5887          150.256       NO       
      PART-1-1.1386      3.74625E-16       0.00365399          179.995       NO       
      PART-1-1.1414               0.      1.20742E-06             180.       NO       
      PART-1-1.1515       0.00294529          15.7833          161.413       NO       
      PART-1-1.1567       0.00310163          13.2834          160.022       NO       
      PART-1-1.1584       0.00851439          10.8336          156.798       NO       
      PART-1-1.1630       0.00251711          15.2545          161.797       NO       
      PART-1-1.1640        0.0011951          8.77558          162.452       NO       
      PART-1-1.1658        0.0182101          18.1727          153.252       NO       
      PART-1-1.1672        0.0150787          17.3643          154.394       NO       
      PART-1-1.1731       0.00605307          17.6922          152.767       NO       
      PART-1-1.1746        0.0171249          16.5738          153.699       NO       
      PART-1-1.1770       0.00393241          17.6097          160.701       NO       
      PART-1-1.1784       0.00293839          12.3809          160.561       NO       
      PART-1-1.1785        0.0027714          15.2551          161.712       NO       
      PART-1-1.1786       0.00773217          17.4654          151.687       NO       
      PART-1-1.1788        0.0134789          19.4401          155.865       NO       
      PART-1-1.1801        0.0145036          12.0529          152.193       NO       
      PART-1-1.1803       0.00688355           11.056          158.563       NO       
      PART-1-1.1805       0.00362221          10.8689          157.884       NO       
      PART-1-1.1815       0.00334815          17.4469          160.885       NO       
      PART-1-1.1816       0.00266262          13.1159          160.922       NO       
      PART-1-1.1825       0.00302481          16.2024          162.011       NO       
      PART-1-1.1829       0.00367331          15.1442          156.452       NO       
      PART-1-1.1835       0.00507006           14.153           157.84       NO       
      PART-1-1.1841       0.00330979          13.1475          159.759       NO       
      PART-1-1.1843        0.0168385          13.2909          153.845       NO       
      PART-1-1.1849       0.00226873          15.0209          158.474       NO       
      PART-1-1.2020       0.00205725          15.4131          158.711       NO       
      PART-1-1.2025               0.      -1.7053E-13             180.       NO       
      PART-1-1.2028       0.00307714          15.5617          157.009       NO       
      PART-1-1.2059       0.00256335          14.7038          158.156       NO       
      PART-1-1.2060       0.00328161          17.0343          161.326       NO       
      PART-1-1.2062        0.0183202          21.2884           153.01       NO       
      PART-1-1.2063        0.0113495          19.6177           154.87       NO       
      PART-1-1.2085       0.00333945          13.4722          159.524       NO       
      PART-1-1.2105       0.00893122          18.8329          156.307       NO       
      PART-1-1.2109        0.0118938           11.449          156.046       NO       
      PART-1-1.2130       0.00331038          9.95458          159.597       NO       
      PART-1-1.2136       0.00504365          16.1753          154.508       NO       
      PART-1-1.2137       0.00262445          15.5246          161.785       NO       
      PART-1-1.2152       0.00302085          15.6134          157.034       NO       
      PART-1-1.2154        0.0136684          12.2947          152.097       NO       
      PART-1-1.2177        0.0105745           19.816          155.265       NO       
      PART-1-1.2222       0.00398491          11.0087           158.07       NO       
      PART-1-1.2229        0.0196202          17.7999          153.045       NO       
      PART-1-1.2237        0.0186868           11.871          154.097       NO       
      PART-1-1.2246        0.0032554           17.005           161.05       NO       
      PART-1-1.2247       0.00263404          10.8443          160.013       NO       
      PART-1-1.2249       0.00191853          11.8949          162.492       NO       
      PART-1-1.2269       0.00230862           14.794          162.647       NO       
      PART-1-1.2327       0.00240444          9.76151          160.955       NO       
      PART-1-1.2355       0.00447041          13.8559          158.385       NO       
      PART-1-1.2370       0.00240109          15.0812          162.326       NO       
      PART-1-1.2371       0.00423125          13.7085          158.445       NO       
      PART-1-1.2389       0.00560161          16.1346          154.059       NO       
      PART-1-1.2427        0.0148672          11.1559          154.509       NO       
      PART-1-1.2498      3.17839E-25      2.50812E-05             180.       NO       
      PART-1-1.2528       0.00839644          17.5419          157.508       NO       
      PART-1-1.2530       0.00648774          17.9438          158.002       NO       
      PART-1-1.2538      3.74489E-16       0.00365399          179.995       NO       
      PART-1-1.2547       0.00376785          17.5358          160.736       NO       
      PART-1-1.2564       0.00292502           11.106          158.931       NO       
      PART-1-1.2597       0.00277716           10.783          159.615       NO       
      PART-1-1.2603      0.000538666           11.925          166.898       NO       
      PART-1-1.2604       0.00113647          13.3541          161.526       NO       
      PART-1-1.2605       0.00210348          15.2312          162.807       NO       
      PART-1-1.2606      0.000645289          8.14227          164.094       NO       
      PART-1-1.2619        0.0180148            13.49          153.436       NO       
      PART-1-1.2620      0.000579176          12.6971          163.809       NO       
      PART-1-1.2621       0.00174217           10.145          157.868       NO       
      PART-1-1.2654      4.29125E-16       0.00378064          179.995       NO       
      PART-1-1.2687       0.00459405          15.6901          155.202       NO       
      PART-1-1.2717               0.      -1.7053E-13             180.       NO       
      PART-1-1.2767      1.11946E-16       0.00345132          179.996       NO       
      PART-1-1.2864               0.      -1.7053E-13             180.       NO       
      PART-1-1.2883       0.00223037          9.82308          159.004       NO       
      PART-1-1.2888      4.29125E-16       0.00378064          179.995       NO       
      PART-1-1.3075      0.000551825          11.5722          164.466       NO       
      PART-1-1.3076       0.00197491          9.40106          159.708       NO       
      PART-1-1.3120      4.37123E-16       0.00379873          179.995       NO       
      PART-1-1.3138        0.0153905          17.1349          154.286       NO       
      PART-1-1.3158         0.013862          16.5057          154.892       NO       
      PART-1-1.3185       0.00156524          11.9133          163.065       NO       
      PART-1-1.3186       0.00245823          11.1817          159.435       NO       
      PART-1-1.3188       0.00293871          15.1469          161.795       NO       
      PART-1-1.3221       0.00680728          17.6781          152.211       NO       
      PART-1-1.3245      1.40346E-16       0.00365189          179.995       NO       
      PART-1-1.3269       4.2078E-16       0.00376255          179.995       NO       
      PART-1-1.3401       0.00374083          9.94532          159.276       NO       
      PART-1-1.3404      4.37123E-16       0.00379873          179.995       NO       
      PART-1-1.3416       0.00308277           16.441          161.359       NO       
      PART-1-1.3417       0.00320389           16.621          160.516       NO       
      PART-1-1.3501      4.28975E-16       0.00378064          179.995       NO       
      PART-1-1.3516       0.00396944          9.41884          160.479       NO       
      PART-1-1.3524       0.00394127          9.41947          160.206       NO       
      PART-1-1.3525       0.00360998          18.0263          160.407       NO       
      PART-1-1.3526       0.00303137          15.2707          161.642       NO       
      PART-1-1.3527       0.00750788          11.2557          153.606       NO       
      PART-1-1.3529       0.00212074          15.6975            158.4       NO       
      PART-1-1.3531       0.00784817          12.1098          152.114       NO       
      PART-1-1.3533       0.00156493          11.9052          163.042       NO       
      PART-1-1.3534       0.00633203          16.9616          158.269       NO       
      PART-1-1.3572      4.29125E-16       0.00378064          179.995       NO       
      PART-1-1.3573       0.00354926          9.82163          160.194       NO       
      PART-1-1.3599        0.0137807          13.0284          150.567       NO       
      PART-1-1.3602       0.00336396          16.4366          156.152       NO       
      PART-1-1.3603       0.00257744          10.7998          160.079       NO       
      PART-1-1.3608       0.00192138          11.9168          162.457       NO       
      PART-1-1.3708        0.0181452          22.7082          153.165       NO       
      PART-1-1.3709       0.00361514           10.293          159.643       NO       
      PART-1-1.3711       0.00285524           15.626          161.337       NO       
      PART-1-1.3723       0.00213075          11.7805          162.136       NO       
      PART-1-1.3726       0.00312934          16.4527          161.469       NO       
      PART-1-1.3727       0.00459758          16.9033          154.506       NO       
      PART-1-1.3729        0.0146261          12.0687          153.823       NO       
      PART-1-1.3730       0.00250207          10.3727           160.86       NO       
      PART-1-1.3750        0.0170954          17.5816          153.622       NO       
      PART-1-1.3789        0.0142697          16.3262          154.749       NO       
      PART-1-1.3826      4.28885E-16       0.00378065          179.995       NO       
      PART-1-1.3878       0.00992836          15.2687          156.384       NO       
      PART-1-1.3883       0.00397362          16.6322          155.348       NO       
      PART-1-1.3960      4.37433E-16       0.00379873          179.995       NO       
      PART-1-1.3975       0.00531145          16.2978          154.207       NO       
      PART-1-1.3993       0.00786899            12.13          152.001       NO       
      PART-1-1.3994       0.00634956          16.9352          158.237       NO       
      PART-1-1.4008      1.32241E-21      0.000202323             180.       NO       
      PART-1-1.4022      4.03427E-21      0.000267429             180.       NO       
      PART-1-1.4041      4.29032E-16       0.00378065          179.995       NO       
      PART-1-1.4047      0.000841563          8.56973           164.12       NO       
      PART-1-1.4050       0.00177987          9.94254          158.075       NO       
      PART-1-1.4051       0.00102518          13.3642          165.568       NO       
      PART-1-1.4052      0.000663121          8.84123          162.886       NO       
      PART-1-1.4054        0.0142268          16.2342          154.708       NO       
      PART-1-1.4059        0.0197971          22.6133          150.959       NO       
      PART-1-1.4081      0.000587309           12.285          167.094       NO       
      PART-1-1.4083       0.00095525          11.0983          163.561       NO       
      PART-1-1.4088      0.000831701          12.5379          162.852       NO       
      PART-1-1.4089      0.000491692          8.00227          165.217       NO       
      PART-1-1.4090       0.00302581          10.3483          157.916       NO       
      PART-1-1.4102      3.74285E-16       0.00365399          179.995       NO       
      PART-1-1.4106       0.00421001          11.0118          156.406       NO       
      PART-1-1.4126        0.0196419          12.8315          153.286       NO       
      PART-1-1.4203        0.0152434          12.0327            155.4       NO       
      PART-1-1.4206       0.00265012          10.4413          159.747       NO       
      PART-1-1.4236        0.0192187          20.6985          144.202       NO       
      PART-1-1.4248        0.0146872          20.9918          154.229       NO       
      PART-1-1.4271      5.36457E-16        0.0039977          179.995       NO       
      PART-1-1.4288      6.44762E-25      2.35059E-05             180.       NO       
      PART-1-1.4296        0.0142848          20.2437           154.96       NO       
      PART-1-1.4334      3.66971E-16       0.00363591          179.995       NO       
      PART-1-1.4406      4.28965E-16       0.00378066          179.995       NO       
      PART-1-1.4442      4.37357E-16       0.00379873          179.995       NO       
      PART-1-1.4486        0.0156169          20.5145          154.468       NO       
      PART-1-1.4490       0.00361316          10.0927          159.257       NO       
      PART-1-1.4494        0.0178359           13.333          153.735       NO       
      PART-1-1.4506       0.00312002          16.8868          161.391       NO       
      PART-1-1.4508       0.00278701          15.3864           157.47       NO       
      PART-1-1.4511       0.00845778            18.68          156.566       NO       
      PART-1-1.4687      4.28965E-16       0.00378066          179.995       NO       
      PART-1-1.4723        0.0117307          19.4224          155.318       NO       
      PART-1-1.4724       0.00848866          10.8556          157.611       NO       
      PART-1-1.4732        0.0019496          12.6173          161.751       NO       
      PART-1-1.4735       0.00224502          15.9654          161.876       NO       
      PART-1-1.4866       0.00344375          17.3594          160.932       NO       
      PART-1-1.4896        0.0151698          16.9397          154.355       NO       
      PART-1-1.4990        0.0181885          17.5917          153.271       NO       
      PART-1-1.5056       0.00581005          16.1324          153.881       NO       
      PART-1-1.5070       0.00357023          13.3233          159.483       NO       
      PART-1-1.5071       0.00285886          15.7876           161.43       NO       
      PART-1-1.5115        0.0163911           17.545          153.885       NO       
      PART-1-1.5284        0.0191481          21.5835          153.521       NO       
      PART-1-1.5330       0.00978038          17.8662          157.262       NO       
      PART-1-1.5331        0.0111402          20.2235          154.863       NO       
      PART-1-1.5337        0.0142886          21.8566          154.594       NO       
      PART-1-1.5343       0.00653273          17.8412          152.308       NO       
      PART-1-1.5364       0.00211132          11.4858          162.398       NO       
      PART-1-1.5372        0.0107549          11.1935          156.854       NO       
      PART-1-1.5373        0.0143704          20.0504          154.305       NO       
      PART-1-1.5375        0.0140192          21.2597          153.449       NO       
      PART-1-1.5376        0.0184163          12.4697          152.422       NO       
      PART-1-1.5380       0.00354129          16.6595           161.01       NO       
      PART-1-1.5390       0.00280575          10.4698          160.812       NO       
      PART-1-1.5422       0.00280566          13.2328          160.578       NO       
      PART-1-1.5426       0.00640626          17.5761          158.081       NO       
      PART-1-1.5565       0.00290007          16.4971          161.402       NO       
      PART-1-1.5571      0.000439728          7.91888          165.324       NO       
      PART-1-1.5578        0.0191464          13.1477          152.648       NO       
      PART-1-1.5608       0.00238489           12.153          161.692       NO       
      PART-1-1.5609        0.0109578           18.308          156.519       NO       
      PART-1-1.5617        0.0139644           11.832           154.49       NO       
      PART-1-1.5650        0.0138117          20.4757          154.784       NO       
      PART-1-1.5674       0.00279069          13.5169          160.684       NO       
      PART-1-1.5678       0.00296392          11.3859          158.389       NO       
      PART-1-1.5704        0.0194046          22.4598          151.379       NO       
      PART-1-1.5814        0.0189096          17.6894          153.014       NO       
      PART-1-1.5889      6.52878E-17      0.000690427          179.999       NO       
      PART-1-1.6175        0.0199994          17.7003          152.853       NO       
      PART-1-1.6220        0.0190035          22.9456          152.776       NO       
      PART-1-1.6225       0.00617521          17.2076          152.957       NO       
      PART-1-1.6254        0.0043358          16.7535          154.867       NO       
      PART-1-1.6257        0.0191915          13.4642          149.909       NO       
      PART-1-1.6258       0.00341489          16.8549          161.064       NO       
      PART-1-1.6264       0.00273485           10.599          160.324       NO       
      PART-1-1.6287       0.00260742            15.36           161.76       NO       
      PART-1-1.6291        0.0097944          18.3135          157.221       NO       
      PART-1-1.6496       0.00319428          16.5692          161.656       NO       
      PART-1-1.6527         0.012196          19.7501          154.524       NO       
      PART-1-1.6529       0.00481212          14.5042          158.208       NO       
      PART-1-1.6531       0.00269606          14.7966          157.923       NO       
      PART-1-1.6532       0.00293587          9.97443          159.215       NO       
      PART-1-1.6624       0.00267474          9.47569          161.485       NO       
      PART-1-1.6627       0.00623772          16.2924           153.44       NO       
      PART-1-1.6650       0.00291999          13.3304           160.25       NO       
      PART-1-1.6663        0.0116382          20.2788          155.845       NO       
      PART-1-1.6677       0.00875528           11.644          157.444       NO       
      PART-1-1.6683       0.00329777          15.4882          156.752       NO       
      PART-1-1.6684        0.0120093          19.7508          155.242       NO       
      PART-1-1.6685       0.00280533           16.335          161.172       NO       
      PART-1-1.6706       0.00335821           15.115          156.848       NO       
      PART-1-1.6717        0.0025523          10.0566           160.46       NO       
      PART-1-1.6722        0.0171628          21.5138          152.129       NO       
      PART-1-1.6734       0.00468025           14.081           158.28       NO       
      PART-1-1.6818        0.0180394          13.3541          153.178       NO       
      PART-1-1.6883       0.00277384           16.201          161.111       NO       
      PART-1-1.6912        0.0184584          11.5248           155.05       NO       
      PART-1-1.6919        0.0187181          20.6135          154.049       NO       
      PART-1-1.6929        0.0025452          9.83312          161.283       NO       
      PART-1-1.6931        0.0039327          13.0592          159.387       NO       
      PART-1-1.6964       0.00317654          15.3433          161.459       NO       
      PART-1-1.6965       0.00245531          11.1288           159.42       NO       
      PART-1-1.6968       0.00698434          17.3352          157.759       NO       
      PART-1-1.6971       0.00298624          17.2633          161.134       NO       
      PART-1-1.6972       0.00414483          9.47637          160.171       NO       
      PART-1-1.7042      0.000599384          10.6895          165.022       NO       
      PART-1-1.7054       0.00304271          15.1488           161.64       NO       
      PART-1-1.7068      0.000628356          13.0041           166.06       NO       
      PART-1-1.7078       0.00188363          9.79741           158.31       NO       
      PART-1-1.7093      0.000633498          11.9595          163.889       NO       
      PART-1-1.7095      0.000928688          11.2242          163.503       NO       
      PART-1-1.7099        0.0182653          13.1224          153.326       NO       
      PART-1-1.7105      0.000522316          12.1427          167.372       NO       
      PART-1-1.7107         0.002619          15.9646          161.356       NO       
      PART-1-1.7109        0.0032454          10.6952          158.945       NO       
      PART-1-1.7162       0.00293473           16.633          160.864       NO       
      PART-1-1.7373       0.00540711          9.72973          160.043       NO       
      PART-1-1.7431        0.0145848          21.3432          152.943       NO       
      PART-1-1.7521       0.00298896          17.2701          161.092       NO       
      PART-1-1.7531       0.00213672          15.7637          158.343       NO       
      PART-1-1.7532        0.0038241          9.33206          160.372       NO       
      PART-1-1.7636      2.43377E-19      0.000910102          179.998       NO       
      PART-1-1.7698        0.0117326          18.1297          156.809       NO       
      PART-1-1.7710       0.00274313          10.2578          161.097       NO       
      PART-1-1.7713        0.0140771          21.1211          154.073       NO       
      PART-1-1.7714        0.0028123           10.128          158.771       NO       
      PART-1-1.7720       0.00228519          15.8975          162.061       NO       
      PART-1-1.7892       0.00284985            11.12          155.612       NO       
      PART-1-1.7893      0.000342422          9.29576          166.986       NO       
      PART-1-1.7895      0.000922034          13.9173          161.932       NO       
      PART-1-1.7896      0.000934005          8.65532          163.488       NO       
      PART-1-1.7898      0.000625239           12.727          166.067       NO       
      PART-1-1.7899      0.000739074          8.96553          162.984       NO       
      PART-1-1.7969       0.00323651          10.4026           159.77       NO       
      PART-1-1.7975       0.00885682          11.7129          155.886       NO       
      PART-1-1.7986        0.0025799          15.4919          161.591       NO       
      PART-1-1.7994        0.0059021          17.7352          152.879       NO       
      PART-1-1.8000        0.0115226          20.8447          155.905       NO       
      PART-1-1.8021       0.00239136          11.6783          161.871       NO       
      PART-1-1.8033       0.00347814           16.455          161.206       NO       
      PART-1-1.8044       0.00644638          17.6432           152.48       NO       
      PART-1-1.8075        0.0039451          15.7719          155.834       NO       
      PART-1-1.8102       0.00391416          13.6946          159.184       NO       
      PART-1-1.8104        0.0031787          15.2761          156.991       NO       
      PART-1-1.8108        0.0158309          12.1454          152.723       NO       
      PART-1-1.8113        0.0109958          16.0379          156.228       NO       
      PART-1-1.8146       0.00844189          18.8563          157.652       NO       
      PART-1-1.8217        0.0173301          22.2008          151.998       NO       
      PART-1-1.8266         0.019351           12.998            153.4       NO       
      PART-1-1.8371       0.00768846          17.4571          151.719       NO       
      PART-1-1.8373        0.0130643          19.3308          156.045       NO       
      PART-1-1.8376       0.00270354           15.171          161.816       NO       
      PART-1-1.8388       0.00346134          9.77835          160.306       NO       
      PART-1-1.8401       0.00913849          19.2152          157.255       NO       
      PART-1-1.8408        0.0141341          13.0986          150.392       NO       
      PART-1-1.8409       0.00345248          16.5259          155.997       NO       
      PART-1-1.8419        0.0192832          11.5981           154.92       NO       
      PART-1-1.8464       0.00360776          14.1801           158.88       NO       
      PART-1-1.8468        0.0121589          20.5189          155.351       NO       
      PART-1-1.8471        0.0116336          10.9076          155.161       NO       
      PART-1-1.8485       0.00218442          13.9755          159.139       NO       
      PART-1-1.8512       0.00645086          15.3409          156.654       NO       
      PART-1-1.8513       0.00264262          14.3309          158.245       NO       
      PART-1-1.8514       0.00315832          10.5426          159.021       NO       
      PART-1-1.8518        0.0164606          20.9015          152.583       NO       
      PART-1-1.8561      0.000603199          12.6206          166.946       NO       
      PART-1-1.8600        0.0179504          12.0821          153.045       NO       
      PART-1-1.8615        0.0172298          22.3729          151.795       NO       
      PART-1-1.8618        0.0197389          20.3193          144.419       NO       
      PART-1-1.8623        0.0148576          16.8837           154.01       NO       
      PART-1-1.8683       0.00308266          16.2856          161.973       NO       
      PART-1-1.8753       0.00347504          10.5963          158.319       NO       
      PART-1-1.8787       0.00317509          10.1929          160.141       NO       
      PART-1-1.8791        0.0164167          21.9287          153.555       NO       
      PART-1-1.8793        0.0169656          11.6738          153.725       NO       
      PART-1-1.8794       0.00236111          15.6516          162.073       NO       
      PART-1-1.8796       0.00306628          14.7544          157.421       NO       
      PART-1-1.8797        0.0123393          12.6746          155.824       NO       
      PART-1-1.8807       0.00352927          9.38962          160.473       NO       
      PART-1-1.8816         0.016515          12.0268           155.42       NO       
      PART-1-1.8827        0.0030373          10.6907          159.147       NO       
      PART-1-1.8854      0.000648078          8.70343          162.801       NO       
      PART-1-1.8992        0.0174226          13.1087          150.154       NO       
      PART-1-1.9056       0.00259943          15.2448          162.027       NO       
      PART-1-1.9061       0.00272952          11.0029          159.225       NO       
      PART-1-1.9062       0.00232305          15.2722          158.264       NO       
      PART-1-1.9063       0.00975483          11.8103          152.799       NO       
      PART-1-1.9065        0.0112589          19.0782          155.477       NO       
      PART-1-1.9072       0.00741085          10.4524          158.309       NO       
      PART-1-1.9081       0.00558528          17.0162          158.861       NO       
      PART-1-1.9086       0.00259766          10.2975          160.201       NO       
      PART-1-1.9087        0.0173378          20.8163           153.65       NO       
      PART-1-1.9088       0.00323725          16.7688          161.453       NO       
      PART-1-1.9089        0.0176156          12.4069          154.284       NO       
      PART-1-1.9090        0.0131705          20.3858           153.91       NO       
      PART-1-1.9095        0.0136857          11.5328          153.624       NO       
      PART-1-1.9097        0.0174281          17.3847          153.883       NO       
      PART-1-1.9168        0.0115775          19.3156          154.937       NO       
      PART-1-1.9184       0.00343417          17.2323          160.948       NO       
      PART-1-1.9202        0.0199466          20.3354           144.29       NO       
      PART-1-1.9213       0.00302626          17.0206          161.401       NO       
      PART-1-1.9244        0.0118787          14.9819          156.366       NO       
      PART-1-1.9281       0.00273086          15.0368          162.002       NO       
      PART-1-1.9282        0.0020459          10.8183           160.06       NO       
      PART-1-1.9288       0.00544113          14.2897          157.074       NO       
      PART-1-1.9293       0.00547085          15.5608          154.495       NO       
      PART-1-1.9344         0.016731          17.1926          153.741       NO       
      PART-1-1.9346         0.019809          18.0949          152.758       NO       
      PART-1-1.9391      0.000585363           12.423          163.958       NO       
      PART-1-1.9413       0.00362851          13.8691          159.009       NO       
      PART-1-1.9430        0.0029543          13.3792          160.517       NO       
      PART-1-1.9435       0.00331191          9.59209          160.028       NO       
      PART-1-1.9437       0.00435636           13.684          158.416       NO       
      PART-1-1.9462       0.00325054          10.5693          159.399       NO       
      PART-1-1.9496        0.0132818          12.6782          155.619       NO       
      PART-1-1.9508        0.0185405          20.2339          144.875       NO       
      PART-1-1.9663        0.0102067           11.767          152.802       NO       
      PART-1-1.9684        0.0126504          19.4831          154.833       NO       
      PART-1-1.9691       0.00499242           13.419          158.085       NO       
      PART-1-1.9701        0.0101281          17.6368          150.192       NO       
      PART-1-1.9813       0.00381762          9.39152          160.457       NO       
      PART-1-1.9820       0.00923755          17.3075          150.888       NO       
      PART-1-1.9822        0.0184308          22.4836          151.573       NO       
      PART-1-1.9863       0.00295094          9.14661          160.597       NO       
      PART-1-1.9869       0.00693123           14.683          156.612       NO       
      PART-1-1.9892        0.0182353          12.9978          153.002       NO       
     PART-1-1.10017      0.000449488          11.6587          164.989       NO       
     PART-1-1.10076        0.0163667          12.1087          152.322       NO       
     PART-1-1.10107       0.00280241          13.4657          160.383       NO       
     PART-1-1.10113       0.00635478          10.9163           159.04       NO       
     PART-1-1.10115       0.00354317          10.8855           157.72       NO       
     PART-1-1.10118        0.0112621          19.6181           155.27       NO       
     PART-1-1.10119        0.0125439          11.6491          153.005       NO       
     PART-1-1.10124       0.00605024          17.2027          158.499       NO       
     PART-1-1.10133        0.0028809          16.7124          160.904       NO       
     PART-1-1.10137       0.00245042          9.74071          160.809       NO       
     PART-1-1.10150       0.00346935          14.8392          156.859       NO       
     PART-1-1.10254       0.00914492          12.0193          157.443       NO       
     PART-1-1.10295        0.0174557          16.9842          153.811       NO       
     PART-1-1.10427       0.00323101          16.1528          161.744       NO       
     PART-1-1.10428        0.0053831          16.4764          154.014       NO       
     PART-1-1.10455       0.00265491          15.1325          157.827       NO       
     PART-1-1.10471       0.00578508          14.5827          157.117       NO       
     PART-1-1.10568      0.000676894          11.0819          164.439       NO       
     PART-1-1.10571       0.00127703           13.851          164.787       NO       
     PART-1-1.10575        0.0010406          8.96088          163.704       NO       
     PART-1-1.10581       0.00145429          9.20387          159.683       NO       
     PART-1-1.10592        0.0011627          11.8499          162.661       NO       
     PART-1-1.10597      0.000508182          8.15721          164.697       NO       
     PART-1-1.10599       0.00260623          15.7109          161.455       NO       
     PART-1-1.10601       0.00365952          17.3395          160.291       NO       
     PART-1-1.11263        0.0193655          13.0131          152.887       NO       
     PART-1-1.11331         0.014779          16.8631           154.34       NO       
     PART-1-1.11451        0.0189465          12.1518          153.828       NO       
     PART-1-1.11606      0.000552014          12.7736          166.465       NO       
     PART-1-1.11848       0.00510232          13.5811          157.889       NO       
     PART-1-1.11849       0.00293332          15.1141          161.774       NO       
     PART-1-1.11870        0.0059738          16.3543           159.49       NO       
     PART-1-1.11872       0.00138434          10.9327          163.646       NO       
     PART-1-1.11926         0.019628          16.7134          153.457       NO       
     PART-1-1.11944       0.00222557          11.9546          161.687       NO       
     PART-1-1.11969        0.0178845          12.7564           153.91       NO       
     PART-1-1.12125        0.0030471          9.49841          160.194       NO       
     PART-1-1.12199        0.0162282          17.0831          153.892       NO       
     PART-1-1.12434       0.00222914          14.9462          158.571       NO       
     PART-1-1.12435       0.00964823          11.6511           153.39       NO       
     PART-1-1.12440       0.00246646          10.6851          159.723       NO       
     PART-1-1.12460       0.00982368          11.6643           153.25       NO       
     PART-1-1.12462       0.00589825          17.7776          159.325       NO       
     PART-1-1.12467        0.0074673          18.2494          157.349       NO       
     PART-1-1.12468       0.00451919          10.4695          159.858       NO       
     PART-1-1.12481        0.0032679          10.0624          160.186       NO       
     PART-1-1.12487       0.00536176          15.9698          154.352       NO       
     PART-1-1.12537       0.00834036          19.1198          157.749       NO       
     PART-1-1.12540        0.0018035          11.9772          162.464       NO       
     PART-1-1.12544       0.00746936          17.5358          157.859       NO       
     PART-1-1.12546       0.00635819          10.9223          158.221       NO       
     PART-1-1.12547       0.00185983          14.6028          163.523       NO       
     PART-1-1.12549       0.00343687          10.7952          158.602       NO       
     PART-1-1.12575        0.0157654          21.0162          153.911       NO       
     PART-1-1.12658        0.0137376          16.5795          154.904       NO       
     PART-1-1.12687        0.0197141          18.1632          152.491       NO       
     PART-1-1.12790        0.0162194          16.6891          154.018       NO       
     PART-1-1.13128       0.00172137          12.1609          162.665       NO       
     PART-1-1.13134       0.00206612          15.5482          158.576       NO       
     PART-1-1.13144       0.00775127          11.9607          152.388       NO       
     PART-1-1.13424       0.00451434          16.7324          160.726       NO       
     PART-1-1.13426        0.0104636          12.1688          151.775       NO       
     PART-1-1.13428       0.00162934          12.1514          162.676       NO       
     PART-1-1.13429       0.00346292          9.76558          160.923       NO       
     PART-1-1.13431       0.00635174          17.3247          158.112       NO       
     PART-1-1.13442       0.00261983           16.505          161.107       NO       
     PART-1-1.13444       0.00631225          14.1177          157.002       NO       
     PART-1-1.13445       0.00344132          16.0435          161.796       NO       
     PART-1-1.13479       0.00113653          13.7858          165.295       NO       
     PART-1-1.13481       0.00102055          13.0142          165.018       NO       
     PART-1-1.13497      0.000522353          11.8713          167.381       NO       
     PART-1-1.13499      0.000436787          7.87903          165.812       NO       
     PART-1-1.13500       0.00286815          16.6788          160.918       NO       
     PART-1-1.13501       0.00352809          10.8897          157.776       NO       
     PART-1-1.13505       0.00374349          11.2583          156.226       NO       
     PART-1-1.13507       0.00108101          13.4715          161.572       NO       
     PART-1-1.13590        0.0027435          10.5673          158.715       NO       
     PART-1-1.13650         0.018399          17.3363          153.405       NO       
     PART-1-1.13671       0.00515416          15.7849          154.629       NO       
     PART-1-1.13673        0.0182196          21.5572          153.701       NO       
     PART-1-1.13858        0.0129164          25.4295          151.462       NO       
     PART-1-1.14212       0.00113402          10.0228          161.733       NO       
     PART-1-1.14215      0.000265688          9.11078          166.832       NO       
     PART-1-1.14219      0.000156875          6.48441          167.564       NO       
     PART-1-1.14225       0.00068404          13.1693          166.091       NO       
     PART-1-1.14226      0.000134768           9.2697          170.265       NO       
     PART-1-1.14228       0.00134887          15.1462          163.965       NO       
     PART-1-1.14230      0.000374187          11.1636          165.475       NO       
     PART-1-1.14231         0.001128          9.41647          160.528       NO       
     PART-1-1.14234        0.0037653          15.8089          160.731       NO       
     PART-1-1.14241       0.00494112          9.73268          159.654       NO       
     PART-1-1.14249         0.011385          17.9355          149.383       NO       
     PART-1-1.14250       0.00575959          16.9208          158.613       NO       
     PART-1-1.14256        0.0014781          11.8874          163.079       NO       
     PART-1-1.14257       0.00247774           16.691          161.875       NO       
     PART-1-1.14260       0.00644866          11.7214          153.137       NO       
     PART-1-1.14262      0.000112142          9.01997           170.61       NO       
     PART-1-1.14263      0.000129866          6.32865          167.884       NO       
     PART-1-1.14264      0.000110487          8.19114          169.067       NO       
     PART-1-1.14265       0.00176434          15.1648          159.325       NO       
     PART-1-1.14267      0.000158449           7.6837          166.618       NO       
     PART-1-1.14268      0.000256461          10.9319          168.113       NO       
     PART-1-1.14274      0.000179481          10.9019          169.183       NO       
     PART-1-1.14343        0.0190495          19.4487          152.229       NO       
     PART-1-1.14400        0.0138181           15.994          155.678       NO       
     PART-1-1.14416      0.000740019          8.93638          162.522       NO       
     PART-1-1.14418       0.00125444          13.7935          164.931       NO       
     PART-1-1.14422        0.0195901           17.201           152.96       NO       
     PART-1-1.14442       0.00329694          10.0598          159.944       NO       
     PART-1-1.14544      0.000118506          10.3097          168.278       NO       
     PART-1-1.14545       0.00026698          8.14203          162.517       NO       
     PART-1-1.14562       0.00147233          10.9459          163.424       NO       
     PART-1-1.14635        0.0181945          17.1263          154.032       NO       
     PART-1-1.14702       0.00414822          16.3766          161.157       NO       
     PART-1-1.14705       0.00340425           11.264          157.687       NO       
     PART-1-1.14706       0.00630298          17.2163          158.104       NO       
     PART-1-1.14707       0.00160813          12.1388          162.783       NO       
     PART-1-1.14710        0.0027891          16.7548          160.794       NO       
     PART-1-1.14713       0.00317849          9.53519          161.333       NO       
     PART-1-1.14727         0.010461          12.2254          151.482       NO       
     PART-1-1.14734       0.00244794          9.25026          161.921       NO       
     PART-1-1.14741       0.00625972          14.0508          156.957       NO       
     PART-1-1.14744       0.00624258          16.2247           153.47       NO       
     PART-1-1.14750        0.0171079          16.9514          153.911       NO       
     PART-1-1.14752       0.00315396          15.6823          162.209       NO       
     PART-1-1.14828       0.00290516          17.1529           161.23       NO       
     PART-1-1.14839       0.00238922          11.0997          159.576       NO       
     PART-1-1.14982        0.0189291          12.1511          153.831       NO       
     PART-1-1.15204        0.0189191          11.3696          155.515       NO       
     PART-1-1.15259        0.0113037          15.7805          155.997       NO       
     PART-1-1.15363       0.00406128          15.7284          160.483       NO       
     PART-1-1.15613       0.00285694          12.3078          160.669       NO       
     PART-1-1.15668        0.0114405          19.6217          154.894       NO       
     PART-1-1.15679        0.0145328          11.9508          152.798       NO       
     PART-1-1.15783       0.00251562          9.00966          162.662       NO       
     PART-1-1.15784       0.00330334          15.3741          162.198       NO       
     PART-1-1.15786       0.00309413          17.4356           160.21       NO       
     PART-1-1.15787        0.0074481          17.9722          156.922       NO       
     PART-1-1.15788       0.00814872          11.4976          152.629       NO       
     PART-1-1.15790       0.00375621          11.6486          156.653       NO       
     PART-1-1.15801       0.00516383          15.2955          154.891       NO       
     PART-1-1.15803       0.00208295          8.79501          162.423       NO       
     PART-1-1.15822        0.0198796          11.9992          152.868       NO       
     PART-1-1.15882        0.0085847          10.8245          156.772       NO       
     PART-1-1.15979       0.00807189          10.5361          158.168       NO       
     PART-1-1.16061      4.67136E-17      0.000634924          179.999       NO       
     PART-1-1.16062       1.5746E-19      0.000778392          179.998       NO       
     PART-1-1.16065        0.0118957          30.5676          149.769       NO       
     PART-1-1.16066        0.0163392          30.8509          139.147       NO       
     PART-1-1.16336       0.00843296          17.5085          157.504       NO       
     PART-1-1.16380       0.00102241          8.82624          163.712       NO       
     PART-1-1.16465       0.00378678          13.8863          158.983       NO       
     PART-1-1.16493       0.00322515          9.83124          159.592       NO       
     PART-1-1.16498       0.00255837          15.4894          161.928       NO       
     PART-1-1.16503        0.0183854          13.5683          153.631       NO       
     PART-1-1.16510        0.0027927           10.807          159.366       NO       
     PART-1-1.16514       0.00256363          15.1569          157.933       NO       
     PART-1-1.16515        0.0116175          11.8104          152.968       NO       
     PART-1-1.16516        0.0080466          18.2945          156.927       NO       
     PART-1-1.16522       0.00332673          13.5674          159.949       NO       
     PART-1-1.16583      0.000580078          9.86048          165.396       NO       
     PART-1-1.16713       0.00358051          15.2145          156.548       NO       
     PART-1-1.16716        0.0033948          10.2207          158.743       NO       
     PART-1-1.16722       0.00272016          16.0361           161.49       NO       
     PART-1-1.16724       0.00644654          16.5731          159.312       NO       
     PART-1-1.16732       0.00423442           14.151          158.712       NO       
     PART-1-1.16733        0.0127198          11.5468            153.8       NO       
     PART-1-1.16816        0.0149971          16.5351          154.451       NO       
     PART-1-1.16835        0.0141252          16.9721          154.758       NO       
     PART-1-1.16884        0.0178233          17.2119          153.237       NO       
     PART-1-1.17052        0.0108658          19.3047          155.624       NO       
     PART-1-1.17169        0.0177542          22.1825          153.173       NO       
     PART-1-1.17461        0.0197486          13.3617          152.941       NO       
     PART-1-1.17580        0.0187323          22.6507          151.104       NO       
     PART-1-1.17749        0.0133578          16.1305          155.039       NO       
     PART-1-1.17756        0.0192462          22.5768          151.089       NO       
     PART-1-1.17760       0.00195977           15.561          162.288       NO       
     PART-1-1.17772       0.00653834          17.9638          157.974       NO       
     PART-1-1.18152       0.00359035          17.6868          160.605       NO       
     PART-1-1.18237        0.0136354          16.1539          155.053       NO       
     PART-1-1.18239        0.0178547          12.0784            154.3       NO       
     PART-1-1.18408        0.0132153          12.7896          155.274       NO       
     PART-1-1.18410        0.0175496          22.2911          153.178       NO       
     PART-1-1.18412        0.0030418          9.98581          159.385       NO       
     PART-1-1.18413       0.00243526          15.5822          161.985       NO       
     PART-1-1.18416       0.00370919           15.352          156.314       NO       
     PART-1-1.18435         0.015394          11.9163          155.361       NO       
     PART-1-1.18446       0.00297812          15.2366          157.293       NO       
     PART-1-1.18447       0.00294328          10.6749           159.43       NO       
     PART-1-1.18450       0.00407666          13.9414           159.07       NO       
     PART-1-1.18454        0.0181092          20.9299          153.178       NO       
     PART-1-1.18574       0.00238247          15.2647          158.178       NO       
     PART-1-1.20487        0.0117976          24.1049          153.004       NO       
     PART-1-1.21644       0.00334818          17.6337          160.042       NO       
     PART-1-1.21854       0.00240488          15.3534          162.194       NO       
     PART-1-1.22076      0.000490715          8.39487          164.504       NO       
     PART-1-1.22077      0.000796545          11.1732          164.022       NO       
     PART-1-1.22079       0.00240897          15.9779          161.789       NO       
     PART-1-1.22080      0.000577847          12.7555           166.86       NO       
     PART-1-1.22091       0.00246724          16.0763          161.736       NO       
     PART-1-1.22092      0.000685423          8.48115          163.171       NO       
     PART-1-1.22093       0.00230789          15.6483          162.615       NO       
     PART-1-1.22094       0.00238814          9.81268          158.575       NO       
     PART-1-1.22095       0.00186517          9.97335          161.645       NO       
     PART-1-1.22097      0.000814353          11.1921          163.926       NO       
     PART-1-1.22402       0.00391656          10.5316          158.794       NO       
     PART-1-1.22403       0.00416885          15.1453          155.955       NO       
     PART-1-1.22404       0.00496284           17.992          159.936       NO       
     PART-1-1.22407       0.00898758          15.8558           155.17       NO       
     PART-1-1.22413       0.00668614          18.2542           158.53       NO       
     PART-1-1.22417        0.0023274          10.1539          159.075       NO       
     PART-1-1.22418       0.00740999          10.6332          155.707       NO       
     PART-1-1.22422       0.00923808          19.6152          156.065       NO       
     PART-1-1.22423       0.00249831          13.4603          160.387       NO       
     PART-1-1.22450        0.0187619          17.6362          152.662       NO       
     PART-1-1.22790        0.0191951          22.2329          151.491       NO       
     PART-1-1.23132        0.0118929          30.5639          149.771       NO       
     PART-1-1.23153        0.0181873          13.6208          152.848       NO       
     PART-1-1.23156        0.0188467          16.8712          153.425       NO       
     PART-1-1.23229        0.0184686           17.648          153.254       NO       
     PART-1-1.23363       0.00204095          11.5831           162.34       NO       
     PART-1-1.23364        0.0157196          12.2682          153.234       NO       
     PART-1-1.23365       0.00245341          10.2806          161.096       NO       
     PART-1-1.23366        0.0120012          20.6268          154.372       NO       
     PART-1-1.23373        0.0167996          22.3818          153.685       NO       
     PART-1-1.23376       0.00366624          10.3823          159.595       NO       
     PART-1-1.23377       0.00183741          11.4221           162.65       NO       
     PART-1-1.23380       0.00698986          17.8998          151.949       NO       
     PART-1-1.23395       0.00460253          15.8523           155.12       NO       
     PART-1-1.23398        0.0063892          14.7333          157.134       NO       
     PART-1-1.23410       0.00853822           19.312          157.319       NO       
     PART-1-1.23411       0.00227343          12.8845          160.994       NO       
     PART-1-1.23413       0.00872763          19.0061          156.755       NO       
     PART-1-1.23414       0.00652889          11.3808          158.219       NO       
     PART-1-1.23579        0.0129836          25.2189          154.616       NO       
     PART-1-1.23584        0.0196015          13.6597          147.917       NO       
     PART-1-1.23603          0.01615          16.5399          153.982       NO       
     PART-1-1.23732        0.0168028          22.2633          151.922       NO       
     PART-1-1.23739        0.0133055          16.5095          154.699       NO       
     PART-1-1.23779        0.0155589          16.2451          154.479       NO       
     PART-1-1.24098        0.0160876          17.8647          153.698       NO       
     PART-1-1.24113        0.0198283          17.0064          152.865       NO       
     PART-1-1.24400         0.017845          11.3425          155.383       NO       
     PART-1-1.24415        0.0199809           17.937          153.005       NO       
     PART-1-1.24514       0.00933199          22.7626          154.248       NO       
     PART-1-1.24528        0.0179741          11.1937          154.865       NO       
     PART-1-1.24682       0.00198698          9.10396           161.67       NO       
     PART-1-1.24683        0.0194479          11.2737          155.359       NO       
     PART-1-1.24684       0.00725325          15.2872           155.54       NO       
     PART-1-1.24685       0.00295582          13.9413          157.981       NO       
     PART-1-1.24689       0.00250415          15.4973          162.999       NO       
     PART-1-1.24693        0.0060425          17.3068          159.454       NO       
     PART-1-1.24699       0.00936834          10.9708          153.912       NO       
     PART-1-1.24700        0.0123275          20.0653          154.312       NO       
     PART-1-1.24701       0.00310451          14.0644          159.935       NO       
     PART-1-1.25077      9.77377E-35      1.20742E-06             180.       NO       
     PART-1-1.25435        0.0774071          5.63747          170.259       NO       
     PART-1-1.25465         0.019694          17.1466          152.985       NO       
     PART-1-1.25488       0.00261488          8.53864          165.241       NO       
     PART-1-1.26318       0.00511109          10.9204          159.558       NO       
     PART-1-1.26355        0.0197502          23.1422          150.639       NO       
     PART-1-1.26358        0.0129934          16.4979          155.137       NO       
     PART-1-1.26371       0.00199104          15.3942           162.53       NO       
     PART-1-1.26380      0.000200117          4.36061          171.655       NO       
     PART-1-1.26389         0.019893          22.9391           150.71       NO       
     PART-1-1.26390        0.0129338          16.2273          155.253       NO       
     PART-1-1.26397        0.0107484          15.4076          157.813       NO       
     PART-1-1.26408         0.023434          9.54038          158.914       NO       
     PART-1-1.26828       0.00451868          10.0583          160.959       NO       
     PART-1-1.26863        0.0192022          11.6933          154.319       NO       
     PART-1-1.26876      0.000465243           8.3785          162.456       NO       
     PART-1-1.26877      0.000151108          9.97909          170.022       NO       
     PART-1-1.26879       0.00250564          9.97836          160.744       NO       
     PART-1-1.26880      0.000594311          8.57315          163.585       NO       
     PART-1-1.26881      0.000232744          9.16642          167.131       NO       
     PART-1-1.26882       0.00314625          16.4006          161.747       NO       
     PART-1-1.26883       0.00378792           15.477          156.143       NO       
     PART-1-1.26887        0.0172166          12.4446          151.582       NO       
     PART-1-1.26890        0.0109367          20.0572          156.236       NO       
     PART-1-1.26891       0.00825057          11.4824          157.549       NO       
     PART-1-1.26892       0.00017102          10.4248          167.556       NO       
     PART-1-1.26893      0.000430814          8.37098          162.127       NO       
     PART-1-1.26894       0.00259852          12.9636          160.838       NO       
     PART-1-1.26895      0.000264977          7.52114          166.548       NO       
     PART-1-1.26896      0.000168681          8.80956          167.968       NO       
     PART-1-1.27658       0.00294753          10.9399           158.98       NO       
     PART-1-1.27660        0.0109112          11.5478          153.386       NO       
     PART-1-1.27673        0.0173832          21.5378          153.657       NO       
     PART-1-1.27674        0.0041447          13.9077          158.462       NO       
     PART-1-1.27807      0.000538188          8.60571          164.415       NO       
     PART-1-1.27808       0.00204708          10.2281          157.773       NO       
     PART-1-1.27816       0.00249701          16.1571          162.273       NO       
     PART-1-1.27822       0.00181692          14.8979          163.168       NO       
     PART-1-1.27823        0.0020293          10.1917          160.852       NO       
     PART-1-1.27859      2.67609E-23      1.74554E-05             180.       NO       
     PART-1-1.27865      0.000635524          12.9009          166.526       NO       
     PART-1-1.27980         0.015503          16.2129          154.899       NO       
     PART-1-1.28233       0.00138702          9.22432          159.808       NO       
     PART-1-1.28235       0.00161288          9.25362          161.951       NO       
     PART-1-1.28236      0.000533202          8.59386          164.113       NO       
     PART-1-1.28238      0.000627099          13.0601           166.57       NO       
     PART-1-1.28239       0.00130773          13.6983          164.205       NO       
     PART-1-1.28240      0.000434399          11.5885          165.083       NO       
     PART-1-1.28252       0.00257705          16.0427          162.118       NO       
     PART-1-1.28257      0.000628514          8.27483           163.51       NO       
     PART-1-1.28258      0.000529831          12.2847          166.829       NO       
     PART-1-1.28259       0.00208175           10.253          161.207       NO       
     PART-1-1.28260      0.000863504          11.3202          163.645       NO       
     PART-1-1.29420      0.000596172          10.2975          165.102       NO       
     PART-1-1.29542        0.0191029          18.0462          152.933       NO       
     PART-1-1.29574               0.      -1.7053E-13             180.       NO       
     PART-1-1.29774         0.016248          30.2808          152.218       NO       
     PART-1-1.29922      0.000167776          10.4116          169.328       NO       
     PART-1-1.30411      0.000131689          6.84146          167.795       NO       
     PART-1-1.30477        0.0132794          25.0255          152.076       NO       
     PART-1-1.30563        0.0197323           22.962          150.922       NO       
     PART-1-1.30716       0.00362974          17.6356          160.686       NO       
     PART-1-1.30727       0.00358214          15.8774            156.2       NO       
     PART-1-1.30890       0.00266062          15.4294           157.63       NO       
     PART-1-1.30950       0.00468111          17.7673          160.069       NO       
     PART-1-1.30951       0.00370208          10.6201          159.167       NO       
     PART-1-1.31482       0.00247474          16.0515          161.596       NO       
     PART-1-1.31491      0.000818063          11.2978          163.949       NO       
     PART-1-1.31670        0.0183549          16.3976          153.536       NO       
     PART-1-1.31931       0.00365283          13.9121          159.516       NO       
     PART-1-1.32308       0.00146821           14.109          163.736       NO       
     PART-1-1.32309       0.00149237          9.34973          159.671       NO       
     PART-1-1.32311      0.000462087           11.651          164.885       NO       
     PART-1-1.32313       0.00180923          9.52222          161.387       NO       
     PART-1-1.32435        0.0197462           13.048          153.258       NO       
     PART-1-1.32537       0.00945468            17.66          157.564       NO       
     PART-1-1.32546       0.00307711          16.3046          161.574       NO       
     PART-1-1.32596      0.000646448          11.9789          163.868       NO       
     PART-1-1.32742        0.0157533          20.4836          153.643       NO       
     PART-1-1.32743       0.00785772          18.0814          157.103       NO       
     PART-1-1.32835        0.0176858          17.2589          153.244       NO       
     PART-1-1.32915        0.0130389          21.2056          152.053       NO       
     PART-1-1.32916       6.1222E-19       0.00114619          179.998       NO       
     PART-1-1.32917        0.0133357           18.593          136.742       NO       
     PART-1-1.33082       0.00295299           16.762          161.551       NO       
     PART-1-1.33089        0.0025309          12.7791          161.099       NO       
     PART-1-1.33109        0.0107571           18.901           156.03       NO       
     PART-1-1.33136       0.00289677          15.6777          161.239       NO       
     PART-1-1.33139        0.0128002           12.439          154.364       NO       
     PART-1-1.33142       0.00827079          17.3499          158.139       NO       
     PART-1-1.33144        0.0115185          12.1688          152.464       NO       
     PART-1-1.33145       0.00717861          18.1502          157.438       NO       
     PART-1-1.33146       0.00239705          10.5556           160.14       NO       
     PART-1-1.33155       0.00303529          15.8313          161.242       NO       
     PART-1-1.33163        0.0168464          20.6478          154.219       NO       
     PART-1-1.33215       0.00260495          16.3554          161.537       NO       
     PART-1-1.33217       0.00233738          9.68245          158.969       NO       
     PART-1-1.33272        0.0157367          26.1064          150.964       NO       
     PART-1-1.33289        0.0185743           13.684           153.66       NO       
     PART-1-1.33291       0.00302557          9.69368          159.728       NO       
     PART-1-1.33292       0.00411725          15.2622          155.918       NO       
     PART-1-1.33387        0.0185332          26.9473          149.678       NO       
     PART-1-1.33402        0.0172682          19.8178          145.598       NO       
[...]
     PART-1-1.41645        0.0193495          28.2679           148.97       NO       
     PART-1-1.42407        0.0181048          27.4354           149.37       NO       
     PART-1-1.42992         0.014003          24.5701          151.303       NO       
     PART-1-1.45182         0.015227          16.3532          154.984       NO       
     PART-1-1.45525        0.0111049          22.0371          154.345       NO       
     PART-1-1.45619       1.7247E-22      0.000160403          179.999       NO       
     PART-1-1.45626       0.00799056          15.4475          158.617       NO       
     PART-1-1.45746      1.61815E-22      0.000157911          179.999       NO       
     PART-1-1.45751       0.00799068          15.4475          158.617       NO       
     PART-1-1.45916       0.00209651          9.23498          161.952       NO       
     PART-1-1.45917       0.00266102          15.4619          162.727       NO       
     PART-1-1.45921       0.00434784          15.3376          155.612       NO       
     PART-1-1.45923       0.00537754          14.0365          157.466       NO       
     PART-1-1.45930        0.0129017          12.1834          151.499       NO       
     PART-1-1.45932       0.00622521          17.6403          159.341       NO       
     PART-1-1.45933       0.00470255          10.1486          160.192       NO       
     PART-1-1.45936       0.00908523          18.4444          156.382       NO       
     PART-1-1.45938        0.0022312          12.8544          161.555       NO       
     PART-1-1.46149        0.0153287          28.7547          149.161       NO       
     PART-1-1.46332        0.0094749          22.8861          154.153       NO       
     PART-1-1.46632       0.00796101          22.5082          154.465       NO       
     PART-1-1.46796        0.0164774          17.1004          153.967       NO       
     PART-1-1.46955        0.0159735          25.8132          150.773       NO       
     PART-1-1.47103        0.0192392          27.2337          148.938       NO       
     PART-1-1.47456        0.0140202          16.4791          154.822       NO       
     PART-1-1.48050        0.0163118          22.1363          151.962       NO       
     PART-1-1.48051       0.00924356          15.2929          156.932       NO       
     PART-1-1.48053        0.0166722          22.0937           151.97       NO       
     PART-1-1.48082      1.09762E-18      0.000850184          179.999       NO       
     PART-1-1.48218        0.0197949          17.5043          152.438       NO       
     PART-1-1.48607        0.0185053           27.968          149.303       NO       
     PART-1-1.48617        0.0120517          24.6703          152.667       NO       
     PART-1-1.48869        0.0133357           18.593          136.743       NO       
     PART-1-1.48870      3.00881E-17      0.000568775          179.999       NO       
     PART-1-1.48873      2.27372E-21      0.000349151             180.       NO       
     PART-1-1.48875      1.17245E-20      0.000406604          179.999       NO       
     PART-1-1.48893        0.0137801          16.7548          155.077       NO       
     PART-1-1.48933       0.00419099          17.4779           159.29       NO       
     PART-1-1.48941       0.00373246          10.5522          157.553       NO       
     PART-1-1.48942        0.0011167          11.3128          163.047       NO       
     PART-1-1.48944      0.000621927          12.2867          167.026       NO       
     PART-1-1.48945       0.00370019          16.9534          160.757       NO       
     PART-1-1.48946      0.000974586          12.7164          162.298       NO       
     PART-1-1.48963        0.0112329          15.7863          155.819       NO       
     PART-1-1.48966       0.00115142          13.8263          164.214       NO       
     PART-1-1.48968       0.00148188          9.76869          158.408       NO       
     PART-1-1.48969      0.000407071          10.0005          166.173       NO       
     PART-1-1.48971      0.000626119          8.87839          162.886       NO       
     PART-1-1.48973      0.000642537          8.16841          164.913       NO       
     PART-1-1.49114       0.00799052          15.4478          158.617       NO       
     PART-1-1.49169        0.0172342          17.0022          153.649       NO       
     PART-1-1.49299       0.00328573          16.1305          160.896       NO       
     PART-1-1.49393       0.00460837          13.9776          158.343       NO       
     PART-1-1.49521        0.0188932          17.8323          152.973       NO       
     PART-1-1.49703        0.0131814          16.1829          154.956       NO       
     PART-1-1.49864        0.0196106          13.1444          153.174       NO       
     PART-1-1.49930        0.0160892          17.3353          153.996       NO       
     PART-1-1.50028       0.00213961          14.7126          158.829       NO       
     PART-1-1.50043       0.00684819          17.9066          157.656       NO       
     PART-1-1.50156        0.0116566          11.5104          155.238       NO       
     PART-1-1.50159       0.00392946          16.6099          155.379       NO       
     PART-1-1.50175       0.00278265          15.4523          161.553       NO       
     PART-1-1.50178        0.0110834          18.6593          156.716       NO       
     PART-1-1.50179       0.00353685           10.065          159.877       NO       
     PART-1-1.50181       0.00245925           12.086          161.341       NO       
     PART-1-1.50255        0.0199332          14.3559          151.927       NO       
     PART-1-1.50344         0.017945          13.0064          153.563       NO       
     PART-1-1.50963      1.00772E-20      0.000443548          179.998       NO       
     PART-1-1.50998        0.0195186          22.4042          151.326       NO       
     PART-1-1.51030       0.00330606          16.2325          160.857       NO       
     PART-1-1.51181        0.0193841           28.292          149.034       NO       
     PART-1-1.51315        0.0186047          17.9734          153.148       NO       
     PART-1-1.51341        0.0163052          16.6939          154.226       NO       
     PART-1-1.51406        0.0197174          17.4837          152.805       NO       
     PART-1-1.51941        0.0196371          13.4144           152.64       NO       
     PART-1-1.53077        0.0147706          16.3354          154.635       NO       
     PART-1-1.53956       0.00220804          9.17524          161.872       NO       
     PART-1-1.53958       0.00281567          15.5453          162.606       NO       
     PART-1-1.54008       0.00375917          9.77395          161.097       NO       
     PART-1-1.54014        0.0103575          11.7813          152.303       NO       
     PART-1-1.54022       0.00213625           12.913          161.628       NO       
     PART-1-1.54027       0.00955616          17.9108          157.111       NO       
     PART-1-1.54028       0.00212915          11.9748           162.09       NO       
     PART-1-1.54031        0.0168828          13.3197          150.195       NO       
     PART-1-1.54032       0.00886335          19.1738          156.265       NO       
     PART-1-1.54036       0.00257248          10.5871          160.417       NO       
     PART-1-1.54116        0.0179493          16.6542          153.664       NO       
     PART-1-1.54145       0.00321944          17.1237          160.282       NO       
     PART-1-1.54185        0.0187082          11.5324          154.951       NO       
     PART-1-1.54365        0.0199113          13.7718          152.384       NO       
     PART-1-1.54582       0.00280613           13.224          160.472       NO       
     PART-1-1.54583       0.00939779          11.5479          153.816       NO       
     PART-1-1.54584        0.0115841          19.5276           155.43       NO       
     PART-1-1.54585       0.00904796          11.1156          157.166       NO       
     PART-1-1.54586       0.00222805          10.4186           160.19       NO       
     PART-1-1.54587       0.00273374          16.6257          161.875       NO       
     PART-1-1.54601       0.00569521          16.2661          153.914       NO       
     PART-1-1.54805       0.00319875          16.7328          161.271       NO       
     PART-1-1.55020        0.0199593          12.0842          154.361       NO       
     PART-1-1.55885        0.0164199          16.7333          154.042       NO       
     PART-1-1.56112      1.11968E-16       0.00345132          179.996       NO       
     PART-1-1.56648        0.0140502          25.2679          151.742       NO       
     PART-1-1.56849         0.011893          30.5637          149.771       NO       
     PART-1-1.57110       0.00419529          10.2362          158.669       NO       
     PART-1-1.57330        0.0188526          17.3867          152.842       NO       
     PART-1-1.57431        0.0052421          11.5189          156.988       NO       
     PART-1-1.57442      0.000517807          7.94257          165.253       NO       
     PART-1-1.57558       0.00846495          18.3724          156.543       NO       
     PART-1-1.58019       0.00841977          14.9552          155.131       NO       
     PART-1-1.58110        0.0196444          16.7984          152.942       NO       
     PART-1-1.58226       0.00297447          15.9474          156.971       NO       
     PART-1-1.58230       0.00395438          11.3378          157.205       NO       
     PART-1-1.58248        0.0189391          27.2078          148.973       NO       
     PART-1-1.58333        0.0107631          19.1087          155.922       NO       
     PART-1-1.58334       0.00234559          15.0355          158.316       NO       
     PART-1-1.58337       0.00684564          17.9738          157.655       NO       
     PART-1-1.58342       0.00258564          12.9319          160.891       NO       
     PART-1-1.58392        0.0046058          15.2836            155.4       NO       
     PART-1-1.58405       0.00650018          14.4984          156.489       NO       
     PART-1-1.59111       0.00617377          16.5859          153.344       NO       
     PART-1-1.59114        0.0191585          21.1977            153.4       NO       
     PART-1-1.59157        0.0171525          13.2321          153.107       NO       
     PART-1-1.59218       0.00304862          17.1279          160.438       NO       
     PART-1-1.59794       0.00301773          15.4654          162.549       NO       
     PART-1-1.60125        0.0157523            16.77          154.205       NO       
     PART-1-1.60389        0.0178409          22.2843          151.615       NO       
     PART-1-1.60519        0.0163567          20.3081           145.59       NO       
     PART-1-1.60876         0.001942          15.2845           158.98       NO       
     PART-1-1.60882       0.00424261          13.6604          158.802       NO       
     PART-1-1.60884       0.00284568          17.1624          160.572       NO       
     PART-1-1.60887       0.00309448          15.2514          162.413       NO       
     PART-1-1.60932       0.00417792          10.2189          158.857       NO       
     PART-1-1.61022       0.00902329          11.1085             157.       NO       
     PART-1-1.61027        0.0101748          11.8442           153.21       NO       
     PART-1-1.61035       0.00223751          10.4324          160.289       NO       
     PART-1-1.61052       0.00274957          16.5864          161.844       NO       
     PART-1-1.61168        0.0118909          16.3246          155.847       NO       
     PART-1-1.61351      0.000778532          12.6626          166.422       NO       
     PART-1-1.61360      0.000498382          12.4263          164.364       NO       
     PART-1-1.61361       0.00053516          12.7275          166.421       NO       
     PART-1-1.61387       0.00693115          17.4318          152.261       NO       
     PART-1-1.61406        0.0163299          20.2976          145.607       NO       
     PART-1-1.61586       0.00574698           15.593          154.242       NO       
     PART-1-1.61587       0.00233694          8.95089          162.094       NO       
     PART-1-1.61608       0.00758426          11.4433          152.887       NO       
     PART-1-1.61611       0.00236786          8.98703          162.729       NO       
     PART-1-1.61618       0.00344543          11.4921          157.024       NO       
     PART-1-1.61621       0.00675963          17.7159            157.4       NO       
     PART-1-1.61626       0.00177269          12.6629          162.283       NO       
     PART-1-1.61829        0.0024574          15.5424          157.945       NO       
     PART-1-1.61831       0.00372422          11.3616          157.133       NO       
     PART-1-1.61833       0.00495771          16.8142          160.385       NO       
     PART-1-1.62175       0.00997218          23.7361          153.371       NO       
     PART-1-1.62216       0.00714062          21.2255          156.104       NO       
     PART-1-1.62294        0.0169306          27.4729          149.848       NO       
     PART-1-1.62347        0.0188048          28.0154          149.611       NO       
     PART-1-1.62689        0.0177484          26.6344          149.966       NO       
     PART-1-1.62694        0.0125756          24.8076           151.84       NO       
     PART-1-1.63128        0.0187722          27.0247          149.507       NO       
     PART-1-1.64541        0.0150085          26.3418          150.581       NO       
     PART-1-1.64974        0.0182689          27.7232           149.89       NO       
     PART-1-1.66470        0.0185239          27.1902          150.207       NO       
     PART-1-1.67955       0.00222996           18.015          160.496       NO       
     PART-1-1.68127          0.00107          11.1912           155.25       NO       
     PART-1-1.68193        0.0019239          9.29878          155.604       NO       
     PART-1-1.74396      0.000626071          13.4972          165.955       NO       
     PART-1-1.75627        0.0142948          18.0181          153.685       NO       
     PART-1-1.75630        0.0048012          21.4418           148.74       NO       
     PART-1-1.77374        0.0179959           14.248           152.21       NO       
     PART-1-1.80882      0.000850916          9.66994          157.346       NO       
     PART-1-1.80884       0.00109026          11.1921          157.346       NO       
     PART-1-1.80892       0.00421282          13.4962          160.617       NO       
  
  
 --------------------------------------------------------------------------------
 Elements with small volume
  
      Element       Adjusted nodes 
 ------------------ -------------- 
         PART-1-1.7       NO       
       PART-1-1.141       NO       
       PART-1-1.332       NO       
       PART-1-1.494       NO       
       PART-1-1.505       NO       
       PART-1-1.629       NO       
       PART-1-1.635       NO       
      PART-1-1.1232       NO       
      PART-1-1.1414       NO       
      PART-1-1.1582       NO       
      PART-1-1.1773       NO       
      PART-1-1.1919       NO       
      PART-1-1.2023       NO       
      PART-1-1.2025       NO       
      PART-1-1.2087       NO       
      PART-1-1.2281       NO       
      PART-1-1.2336       NO       
      PART-1-1.2354       NO       
      PART-1-1.2391       NO       
      PART-1-1.2444       NO       
      PART-1-1.2475       NO       
      PART-1-1.2560       NO       
      PART-1-1.2631       NO       
      PART-1-1.2717       NO       
      PART-1-1.2752       NO       
      PART-1-1.2864       NO       
      PART-1-1.2972       NO       
      PART-1-1.7631       NO       
     PART-1-1.16063       NO       
     PART-1-1.16073       NO       
     PART-1-1.25077       NO       
     PART-1-1.29573       NO       
     PART-1-1.29574       NO       
     PART-1-1.32919       NO       
     PART-1-1.32921       NO       
     PART-1-1.45622       NO       
     PART-1-1.45624       NO       
     PART-1-1.45744       NO       
     PART-1-1.48639       NO       
     PART-1-1.48876       NO       
     PART-1-1.50968       NO       
     PART-1-1.50970       NO       
     PART-1-1.52419       NO       
  
  *Step, name=Step-1, nlgeom=NO, perturbation
  *output, field, variable=PRESELECT
  *Step, name=Step-1, nlgeom=NO, perturbation

 ***ERROR: NODE SET ASSEMBLY_BOTTOM_SET_PIN HAS NOT BEEN DEFINED

 ***ERROR: NODE SET ASSEMBLY_BOTTOM_SET_PIN HAS NOT BEEN DEFINED

 ***ERROR: NODE SET ASSEMBLY_TOP_SET_PIN HAS NOT BEEN DEFINED

 ***ERROR: NODE SET ASSEMBLY_TOP_SET_PIN HAS NOT BEEN DEFINED

 ***ERROR: NODE SET ASSEMBLY_TOP_SET_PIN HAS NOT BEEN DEFINED

 ***ERROR: NODE SET ASSEMBLY_TOP_SET_PIN HAS NOT BEEN DEFINED
  *Step, name=Step-1, nlgeom=NO, perturbation
  *buckle
  *boundary, op=NEW, loadcase=1
  *boundary, op=NEW, loadcase=2
  *boundary, op=NEW, loadcase=1
  *boundary, op=NEW, loadcase=2
  *dsload

 ***ERROR: THE SURFACE ASSEMBLY_TOP_SURFACE HAS NOT BEEN LOCATED
 LINE IMAGE: ASSEMBLY_TOP_SURFACE, P, 1.
  *output, field, variable=PRESELECT
  *endstep
  *Step, name=Step-1, nlgeom=NO, perturbation
  *buckle
  *buckle
  *boundary, op=NEW, loadcase=1

 ***ERROR: A BOUNDARY CONDITION HAS BEEN SPECIFIED ON NODE SET 
           ASSEMBLY_BOTTOM_SET_PIN BUT THIS NODE SET IS NOT ACTIVE IN THE MODEL
  *boundary, op=NEW, loadcase=2

 ***ERROR: A BOUNDARY CONDITION HAS BEEN SPECIFIED ON NODE SET 
           ASSEMBLY_BOTTOM_SET_PIN BUT THIS NODE SET IS NOT ACTIVE IN THE MODEL
  *boundary, op=NEW, loadcase=1

 ***ERROR: A BOUNDARY CONDITION HAS BEEN SPECIFIED ON NODE SET 
           ASSEMBLY_TOP_SET_PIN BUT THIS NODE SET IS NOT ACTIVE IN THE MODEL

 ***ERROR: A BOUNDARY CONDITION HAS BEEN SPECIFIED ON NODE SET 
           ASSEMBLY_TOP_SET_PIN BUT THIS NODE SET IS NOT ACTIVE IN THE MODEL
  *boundary, op=NEW, loadcase=2

 ***ERROR: A BOUNDARY CONDITION HAS BEEN SPECIFIED ON NODE SET 
           ASSEMBLY_TOP_SET_PIN BUT THIS NODE SET IS NOT ACTIVE IN THE MODEL

 ***ERROR: A BOUNDARY CONDITION HAS BEEN SPECIFIED ON NODE SET 
           ASSEMBLY_TOP_SET_PIN BUT THIS NODE SET IS NOT ACTIVE IN THE MODEL
  *endstep

 ***ERROR: NODE SET ASSEMBLY_BOTTOM_SET_PIN HAS NOT BEEN DEFINED

 ***ERROR: NODE SET ASSEMBLY_BOTTOM_SET_PIN HAS NOT BEEN DEFINED

 ***ERROR: NODE SET ASSEMBLY_TOP_SET_PIN HAS NOT BEEN DEFINED

 ***ERROR: NODE SET ASSEMBLY_TOP_SET_PIN HAS NOT BEEN DEFINED

 ***ERROR: NODE SET ASSEMBLY_TOP_SET_PIN HAS NOT BEEN DEFINED

 ***ERROR: NODE SET ASSEMBLY_TOP_SET_PIN HAS NOT BEEN DEFINED



                            P R O B L E M   S I Z E


          NUMBER OF ELEMENTS IS                                 82088
          NUMBER OF ELEMENTS DEFINED BY THE USER AND *TIE       82086
          NUMBER OF NODES IS                                    35937
          NUMBER OF NODES DEFINED BY THE USER                   35937
          TOTAL NUMBER OF VARIABLES IN THE MODEL               107817
          (DEGREES OF FREEDOM PLUS MAX NO. OF ANY LAGRANGE MULTIPLIER
           VARIABLES. INCLUDE *PRINT,SOLVE=YES TO GET THE ACTUAL NUMBER.)





          THE PROGRAM HAS DISCOVERED    41 FATAL ERRORS

               ** EXECUTION IS TERMINATED **

 ***ERROR: Failed to locate set "ASSEMBLY_TOP_SET_PIN".



                              END OF USER INPUT PROCESSING



     JOB TIME SUMMARY
       USER TIME (SEC)      =   3.3000    
       SYSTEM TIME (SEC)    =   1.0000    
       TOTAL CPU TIME (SEC) =   4.3000    
       WALLCLOCK TIME (SEC) =          5
