1

   Abaqus 3DEXPERIENCE R2019x                                  Date 01-May-2020   Time 23:37:36
   For use by TEXAS A_M UNIVERSITY SYSTEM under license from Dassault Systemes or its subsidiary.



                         The Abaqus Software is a product of:

                           Dassault Systemes SIMULIA Corp.
                           1301 Atwood Avenue, Suite 101W
                              Johnston, RI 02919, USA
 


                   The Abaqus Software is available only under license
                   from Dassault Systemes or its subsidiary and may be
                   used or reproduced only in accordance with the terms
                   of such license.
 
                          On machine AERO-MJ09CBE4 
                          you are authorized to run
                          Abaqus/Standard until 11-Jul-2021

                          Your site id is: 200000000002185 


 
                    For assistance or any other information you may
                    obtain contact information for your local office
                    from the world wide web at:

                      http://www.3ds.com/products/simulia/locations/

 
                * * * * * * * * * * * * * * * * * * * * * * * * * * * * * * 
                *                                                         * 
                *                   *****************                     * 
                *                   *  N O T I C E  *                     * 
                *                   *****************                     * 
                *                                                         * 
                *                                                         * 
                *               Abaqus 3DEXPERIENCE R2019x                * 
                *                                                         * 
                *          BUILD ID: 2018_09_24-13.41.51 157541           * 
                *                                                         * 
                *                                                         * 
                *  Please make sure you are using                         * 
                *  release 3DEXPERIENCE R2019x manuals                    * 
                *  plus the notes accompanying this release.              * 
                *                                                         * 
                *                                                         * 
                *                                                         * 
                *                                                         * 
                *                                                         * 
                *   This program may not be used for commercial purposes  * 
                *           without payment of a commercial fee.          * 
                *                                                         * 
                * * * * * * * * * * * * * * * * * * * * * * * * * * * * * * 


 



     PROCESSING PART, INSTANCE, AND ASSEMBLY INFORMATION
   *******************************************************


 ***ERROR: in keyword *RIGIDBODY, file "Buckling_job_0_1.inp", line 122847: 
           Unknown assembly set TOP_SET_PIN
 ***NOTE: DUE TO AN INPUT ERROR THE ANALYSIS PRE-PROCESSOR HAS BEEN UNABLE TO 
          INTERPRET SOME DATA.  SUBSEQUENT ERRORS MAY BE CAUSED BY THIS OMISSION

 ***ERROR: in keyword *RIGIDBODY, file "Buckling_job_0_1.inp", line 122849: 
           Unknown assembly set BOTTOM_SET_PIN

 ***ERROR: in keyword *BOUNDARY, file "Buckling_job_0_1.inp", line 122871: 
           Unknown assembly node set BOTTOM_SET_PIN

 ***ERROR: in keyword *BOUNDARY, file "Buckling_job_0_1.inp", line 122873: 
           Unknown assembly node set BOTTOM_SET_PIN

 ***ERROR: in keyword *BOUNDARY, file "Buckling_job_0_1.inp", line 122876: 
           Unknown assembly node set TOP_SET_PIN

 ***ERROR: in keyword *BOUNDARY, file "Buckling_job_0_1.inp", line 122876: 
           Unknown assembly node set TOP_SET_PIN

 ***ERROR: in keyword *BOUNDARY, file "Buckling_job_0_1.inp", line 122879: 
           Unknown assembly node set TOP_SET_PIN

 ***ERROR: in keyword *BOUNDARY, file "Buckling_job_0_1.inp", line 122879: 
           Unknown assembly node set TOP_SET_PIN

     END PROCESSING PART, INSTANCE, AND ASSEMBLY INFORMATION
   ***********************************************************




     OPTIONS BEING PROCESSED
   ***************************


  *Heading
  *Node
  *Element, type=C3D4
  *Nset, nset=ASSEMBLY_PART-1-1_FIBRE_SET1
  *Nset, nset=ASSEMBLY_PART-1-1_FIBRE_SET2
  *Nset, nset=ASSEMBLY_PART-1-1_FIBRE_SET3
  *Nset, nset=ASSEMBLY_PART-1-1_FIBRE_SET4
  *Elset, elset=ASSEMBLY_PART-1-1_FIBRE_SET1
  *Elset, elset=ASSEMBLY_PART-1-1_FIBRE_SET2
  *Elset, elset=ASSEMBLY_PART-1-1_FIBRE_SET3
  *Elset, elset=ASSEMBLY_PART-1-1_FIBRE_SET4
  *Node
  *Nset, nset=ASSEMBLY__PICKEDSET19
  *Nset, nset=ASSEMBLY__PICKEDSET21

 ***WARNING: BUCKLE OPTION IS NOT SUPPORTED FOR ELEMENT LOOP PARALLELIZATION. 
             IF YOU HAVE SPECIFIED ELEMENT LOOP PARALLELIZATION, IT WILL BE 
             TURNED OFF FOR THIS ANALYSIS.
 LINE IMAGE: *buckle
  *material, name=FIBRE_MATERIAL
  *elastic
  *material, name=MATRIX_MATERIAL
  *elastic
  *solidsection, elset=ASSEMBLY_PART-1-1_FIBRE_SET1, material=FIBRE_MATERIAL
  *solidsection, elset=ASSEMBLY_PART-1-1_FIBRE_SET2, material=FIBRE_MATERIAL
  *solidsection, elset=ASSEMBLY_PART-1-1_FIBRE_SET3, material=FIBRE_MATERIAL
  *solidsection, elset=ASSEMBLY_PART-1-1_FIBRE_SET4, material=FIBRE_MATERIAL
  *solidsection, elset=ASSEMBLY_PART-1-1_FIBRE_SET1, material=FIBRE_MATERIAL
  *solidsection, elset=ASSEMBLY_PART-1-1_FIBRE_SET2, material=FIBRE_MATERIAL
  *solidsection, elset=ASSEMBLY_PART-1-1_FIBRE_SET3, material=FIBRE_MATERIAL
  *solidsection, elset=ASSEMBLY_PART-1-1_FIBRE_SET4, material=FIBRE_MATERIAL
  *rigidbody, refnode=ASSEMBLY__PICKEDSET19, pinnset=ASSEMBLY_TOP_SET_PIN
  *rigidbody, refnode=ASSEMBLY__PICKEDSET21, pinnset=ASSEMBLY_BOTTOM_SET_PIN
  *rigidbody, refnode=ASSEMBLY__PICKEDSET19, pinnset=ASSEMBLY_TOP_SET_PIN
  *rigidbody, refnode=ASSEMBLY__PICKEDSET21, pinnset=ASSEMBLY_BOTTOM_SET_PIN
  *rigidbody, refnode=ASSEMBLY__PICKEDSET19, pinnset=ASSEMBLY_TOP_SET_PIN
  *rigidbody, refnode=ASSEMBLY__PICKEDSET21, pinnset=ASSEMBLY_BOTTOM_SET_PIN
  *rigidbody, refnode=ASSEMBLY__PICKEDSET19, pinnset=ASSEMBLY_TOP_SET_PIN

 ***ERROR: NODE SET ASSEMBLY_TOP_SET_PIN HAS NOT BEEN DEFINED
  *rigidbody, refnode=ASSEMBLY__PICKEDSET21, pinnset=ASSEMBLY_BOTTOM_SET_PIN

 ***ERROR: NODE SET ASSEMBLY_BOTTOM_SET_PIN HAS NOT BEEN DEFINED
  *rigidbody, refnode=ASSEMBLY__PICKEDSET19, pinnset=ASSEMBLY_TOP_SET_PIN

 ***ERROR: NODE SET ASSEMBLY_TOP_SET_PIN HAS NOT BEEN DEFINED

 ***ERROR: UNABLE TO LOCATE NODE SET ASSEMBLY_TOP_SET_PIN. THE NODE SET MUST 
           HAVE BEEN PREVIOUSLY DEFINED. NODES IN THIS NODE SET WILL NOT BE 
           PART OF RIGID BODY
 LINE IMAGE: *rigidbody, refnode=ASSEMBLY__PICKEDSET19, 
             pinnset=ASSEMBLY_TOP_SET_PIN
  *rigidbody, refnode=ASSEMBLY__PICKEDSET21, pinnset=ASSEMBLY_BOTTOM_SET_PIN

 ***ERROR: NODE SET ASSEMBLY_BOTTOM_SET_PIN HAS NOT BEEN DEFINED

 ***ERROR: UNABLE TO LOCATE NODE SET ASSEMBLY_BOTTOM_SET_PIN. THE NODE SET MUST 
           HAVE BEEN PREVIOUSLY DEFINED. NODES IN THIS NODE SET WILL NOT BE 
           PART OF RIGID BODY
 LINE IMAGE: *rigidbody, refnode=ASSEMBLY__PICKEDSET21, 
             pinnset=ASSEMBLY_BOTTOM_SET_PIN

 ***ERROR: SURFACE DEFINITION ASSEMBLY_TOP_SURFACE NOT FOUND.
  *rigidbody, refnode=ASSEMBLY__PICKEDSET19, pinnset=ASSEMBLY_TOP_SET_PIN
  *rigidbody, refnode=ASSEMBLY__PICKEDSET21, pinnset=ASSEMBLY_BOTTOM_SET_PIN
  *rigidbody, refnode=ASSEMBLY__PICKEDSET19, pinnset=ASSEMBLY_TOP_SET_PIN

 ***ERROR: NODE SET ASSEMBLY_TOP_SET_PIN HAS NOT BEEN DEFINED

 ***ERROR: UNABLE TO LOCATE NODE SET ASSEMBLY_TOP_SET_PIN. THE NODE SET MUST 
           HAVE BEEN PREVIOUSLY DEFINED. NODES IN THIS NODE SET WILL NOT BE 
           PART OF RIGID BODY
 LINE IMAGE: *rigidbody, refnode=ASSEMBLY__PICKEDSET19, 
             pinnset=ASSEMBLY_TOP_SET_PIN
  *rigidbody, refnode=ASSEMBLY__PICKEDSET21, pinnset=ASSEMBLY_BOTTOM_SET_PIN

 ***ERROR: NODE SET ASSEMBLY_BOTTOM_SET_PIN HAS NOT BEEN DEFINED

 ***ERROR: UNABLE TO LOCATE NODE SET ASSEMBLY_BOTTOM_SET_PIN. THE NODE SET MUST 
           HAVE BEEN PREVIOUSLY DEFINED. NODES IN THIS NODE SET WILL NOT BE 
           PART OF RIGID BODY
 LINE IMAGE: *rigidbody, refnode=ASSEMBLY__PICKEDSET21, 
             pinnset=ASSEMBLY_BOTTOM_SET_PIN
  *boundary, op=NEW, loadcase=1
  *boundary, op=NEW, loadcase=2
  *boundary, op=NEW, loadcase=1
  *boundary, op=NEW, loadcase=2
  *boundary, op=NEW, loadcase=1
  *boundary, op=NEW, loadcase=2
  *boundary, op=NEW, loadcase=1
  *boundary, op=NEW, loadcase=2
  *rigidbody, refnode=ASSEMBLY__PICKEDSET19, pinnset=ASSEMBLY_TOP_SET_PIN
  *rigidbody, refnode=ASSEMBLY__PICKEDSET21, pinnset=ASSEMBLY_BOTTOM_SET_PIN
  *output, field, variable=PRESELECT
  *output, field, variable=PRESELECT
  *output, field, variable=PRESELECT

 ***ERROR: NODE SET ASSEMBLY_TOP_SET_PIN HAS NOT BEEN DEFINED

 ***ERROR: NODE SET ASSEMBLY_BOTTOM_SET_PIN HAS NOT BEEN DEFINED
  
                               E L E M E N T   Q U A L I T Y  C H E C K S        
  
  
 ***NOTES: DISTORTED ISOPARAMETRIC ELEMENTS: ANGLE BETWEEN ISOPARAMETRIC LINES 
           IS LESS THAN 45 DEGREES OR GREATER THAN 135 DEGREES.
  
           TETRAHEDRAL QUALITY MEASURE: VOLUME OF TETRAHEDRON DIVIDED BY THE 
           VOLUME OF EQUILATERAL TETRAHEDRON WITH SAME CIRCUMSPHERE RADIUS; 
           0 FOR DEGENERATE TETRAHEDRON AND 1 FOR EQUILATERIAL TETRAHEDRON. IT 
           IS RECOMMENDED THAT THE TETRAHEDRAL QUALITY MEASURE BE GREATER THAN 
           0.02, THE MIN INTERIOR (DIHEDRAL) ANGLE BE GREATER THAN 10 DEGREES, 
           AND THE MAX INTERIOR (DIHEDRAL) ANGLE BE LESS THAN 160 DEGREES. 
  
           MODIFIED TETRAHEDRAL QUALITY MEASURE: ANGLES BETWEEN THE TWO LINE 
           SEGMENTS ON EACH EDGE; THE EDGES OF MODIFIED TETRAHEDRAL SHOULD BE 
           AS STRAIGHT AS POSSIBLE. IT IS RECOMMENDED THAT THE ANGLE BETWEEN 
           THE TWO LINE SEGMENTS ON EACH EDGE IS BETWEEN 160 AND 180 DEGREES. 
  
           TRIANGULAR QUALITY MEASURE: AREA OF TRIANGLE DIVIDED BY THE AREA OF 
           EQUILATERAL TRIANGLE WITH SAME CIRCUMCIRCLE RADIUS; 0 FOR DEGENERATE 
           TRIANGLE AND 1 FOR EQUILATERAL TRIANGLE. IT IS RECOMMENDED THAT THE
           TRIANGULAR QUALITY MEASURE BE GREATER THAN 0.01, THE MIN INTERIOR 
           ANGLE BE GREATER THAN 10 DEGREES, AND THE MAX INTERIOR ANGLE BE LESS 
           THAN 160 DEGREES. 
  
           NODAL ADJUSTMENTS ARISING FROM CONTACT INTERACTIONS AND/OR TIE 
           CONSTRAINTS CAN CAUSE SEVERE ELEMENT DISTORTION. IT MAY BE NECESSARY 
           TO REMESH IN ORDER TO REDUCE THE AMOUNT OF ADJUSTMENT. 

 ***WARNING: 12410 elements are distorted. Either the isoparametric angles are 
             out of the suggested limits or the triangular or tetrahedral 
             quality measure is bad. The elements have been identified in 
             element set WarnElemDistorted.

 ***ERROR: The volume of 61 elements is zero, small, or negative. Check 
           coordinates or node numbering, or modify the mesh seed. In the case 
           of a tetrahedron this error may indicate that all nodes are located 
           very nearly in a plane. The elements have been identified in element 
           set ErrElemVolSmallNegZero.
  
 --------------------------------------------------------------------------------
 Distorted tetrahedral elements
  
      Element       Quality measure     Min angle        Max angle     Adjusted nodes 
 ------------------ ---------------- ---------------- ---------------- -------------- 
        PART-1-1.27       0.00655797          17.4069          140.809       NO       
       PART-1-1.202        0.0211316          5.43952          161.752       NO       
       PART-1-1.248       0.00497629          11.7838          157.154       NO       
       PART-1-1.263        0.0159675          14.5717          152.025       NO       
       PART-1-1.435       0.00421411          10.6124          164.257       NO       
       PART-1-1.436        0.0475174          9.97657          154.836       NO       
       PART-1-1.654        0.0104582          22.6086          154.161       NO       
       PART-1-1.659        0.0172452          21.4671          148.361       NO       
       PART-1-1.778        0.0705257          9.83479           153.37       NO       
       PART-1-1.783        0.0132429          20.6343          135.493       NO       
       PART-1-1.876       0.00321103          23.7931          160.773       NO       
       PART-1-1.880       0.00593037          16.5458          160.908       NO       
      PART-1-1.1032        0.0159841          17.3645          154.151       NO       
      PART-1-1.1156       0.00346683          18.4946          158.619       NO       
      PART-1-1.1165        0.0117138           16.482          156.742       NO       
      PART-1-1.1237        0.0130979          16.7735          154.759       NO       
      PART-1-1.1253        0.0101422          22.7327          156.767       NO       
      PART-1-1.1372       0.00665935          26.6546          150.166       NO       
      PART-1-1.1398         0.106637          7.99785          157.439       NO       
      PART-1-1.1450       0.00947498          13.3095          142.648       NO       
      PART-1-1.1472        0.0142084          17.5196           156.34       NO       
      PART-1-1.1480        0.0179062          16.6491          155.332       NO       
      PART-1-1.1751        0.0142952          16.5799          155.797       NO       
      PART-1-1.1824       0.00370095          21.1006          150.485       NO       
      PART-1-1.2301       0.00469826          15.3122          162.011       NO       
      PART-1-1.2342       0.00358422          16.7968           160.49       NO       
      PART-1-1.2661       0.00868675          11.6789          159.863       NO       
      PART-1-1.2676        0.0173244          22.3401           156.16       NO       
      PART-1-1.2717        0.0381541          9.72277          159.179       NO       
      PART-1-1.2743         0.003239          19.9245          158.463       NO       
      PART-1-1.2745        0.0287151          9.99208          158.016       NO       
      PART-1-1.2856         0.006241          25.0928          159.327       NO       
      PART-1-1.2887       0.00888226          14.2085          157.311       NO       
      PART-1-1.2925       0.00565613          21.5563          155.051       NO       
      PART-1-1.3094       0.00952241          11.0806           159.76       NO       
      PART-1-1.3177       0.00529354          14.7186          159.601       NO       
      PART-1-1.3438        0.0110101          21.5144          157.875       NO       
      PART-1-1.3632       0.00603314          14.0551          161.259       NO       
      PART-1-1.3652         0.209365          9.90259          151.565       NO       
      PART-1-1.3841       0.00596438          21.0128          160.511       NO       
      PART-1-1.4011      0.000927043          6.86611          168.761       NO       
      PART-1-1.4071       0.00763601          16.6949          159.933       NO       
      PART-1-1.4368        0.0151331          17.0588          158.901       NO       
      PART-1-1.4500        0.0100852          18.6985          158.415       NO       
      PART-1-1.4515        0.0119918          27.3794          150.676       NO       
      PART-1-1.4618       0.00100409          16.5259          166.527       NO       
      PART-1-1.4834       0.00283942          20.4158          163.201       NO       
      PART-1-1.4877        0.0077741          17.0107          152.727       NO       
      PART-1-1.4888       0.00777508          17.0119          152.726       NO       
      PART-1-1.4942        0.0964467          9.66191          153.574       NO       
      PART-1-1.4947        0.0117513           12.891          144.165       NO       
      PART-1-1.4952        0.0207268          8.54493          158.235       NO       
      PART-1-1.4977        0.0117407          12.8874          144.177       NO       
      PART-1-1.5114       0.00723033          17.2048          158.311       NO       
      PART-1-1.5139         0.171732          9.44567          155.871       NO       
      PART-1-1.5223        0.0182737          8.65386          160.022       NO       
      PART-1-1.5231        0.0203376          8.46446          158.427       NO       
      PART-1-1.5242       0.00386604          9.74974          167.744       NO       
      PART-1-1.5476        0.0112049          12.5853          154.091       NO       
      PART-1-1.5486         0.100738          8.99105          153.169       NO       
      PART-1-1.5536        0.0122244          23.9616          153.192       NO       
      PART-1-1.5686         0.106148           9.4938          152.415       NO       
      PART-1-1.5689       0.00757211          32.5717           155.98       NO       
      PART-1-1.5805        0.0184659          27.1206           140.49       NO       
      PART-1-1.5808        0.0183286          32.1459          153.152       NO       
      PART-1-1.5885       0.00668845          25.5274          159.447       NO       
      PART-1-1.6052         0.015564          31.6269           153.45       NO       
      PART-1-1.6093        0.0039169          11.1747          149.733       NO       
      PART-1-1.6147        0.0165977          31.0566          153.168       NO       
      PART-1-1.6227       0.00727777          17.2754          158.288       NO       
      PART-1-1.6373       0.00595369          22.6595          156.951       NO       
      PART-1-1.6441       0.00756413          19.1344           159.17       NO       
      PART-1-1.6494        0.0176603          14.9097          154.441       NO       
      PART-1-1.6495       0.00254761          17.2069           164.63       NO       
      PART-1-1.6568       0.00957897           20.541          156.355       NO       
      PART-1-1.6620       0.00150399          16.7494          164.755       NO       
      PART-1-1.6639       0.00268673          17.9244          164.309       NO       
      PART-1-1.6920        0.0847231          8.42753          152.953       NO       
      PART-1-1.7083       0.00479681          15.0481          156.952       NO       
      PART-1-1.7150       0.00369848          15.2596          163.527       NO       
      PART-1-1.7154        0.0114776          12.8037          144.206       NO       
      PART-1-1.7163         0.133007          9.24563           155.43       NO       
      PART-1-1.7190       0.00943279          12.3169          159.911       NO       
      PART-1-1.7379       0.00613337          24.9182           159.29       NO       
      PART-1-1.7386       0.00499893          14.7174          159.694       NO       
      PART-1-1.7389         0.122699          9.62249          152.544       NO       
      PART-1-1.7406        0.0126164          18.6964          157.926       NO       
      PART-1-1.7421      1.52386E-05          8.13689          174.041       NO       
      PART-1-1.7439        0.0161917            15.33          154.756       NO       
      PART-1-1.7456        0.0125497          24.9026          154.233       NO       
      PART-1-1.7457        0.0166928          15.9459          145.389       NO       
      PART-1-1.7553        0.0144726          23.7758          152.979       NO       
      PART-1-1.7558        0.0029945          24.3467          161.072       NO       
      PART-1-1.7573        0.0196859          16.9049           153.07       NO       
      PART-1-1.7585        0.0151927          19.7132          157.166       NO       
      PART-1-1.7658        0.0086572          25.5343          156.314       NO       
      PART-1-1.7689         0.015442          20.4163          152.375       NO       
      PART-1-1.7817        0.0562813          9.89167          158.169       NO       
      PART-1-1.7941       0.00650257          21.8485          143.448       NO       
      PART-1-1.7946        0.0100852          18.6985          158.415       NO       
      PART-1-1.7982       0.00608427          16.0549          157.376       NO       
      PART-1-1.8126       0.00788358           32.501           155.76       NO       
      PART-1-1.8399        0.0178991          20.7044           154.99       NO       
      PART-1-1.8443       0.00253466          17.1809           164.65       NO       
      PART-1-1.8458       0.00763611           16.695          159.933       NO       
      PART-1-1.8620         0.015488          17.6159          154.312       NO       
      PART-1-1.8622         0.113768          7.70716          159.436       NO       
      PART-1-1.8626       0.00310585          16.1342          160.004       NO       
      PART-1-1.8634        0.0138089          24.3651          144.169       NO       
      PART-1-1.8746        0.0165203          8.15729          159.491       NO       
      PART-1-1.8749       0.00196988          18.1029           164.16       NO       
      PART-1-1.8812        0.0137175          6.08086          164.816       NO       
      PART-1-1.8815       0.00790988          17.3309           152.56       NO       
      PART-1-1.8994        0.0124399          13.4793          144.102       NO       
      PART-1-1.8998       0.00943187          12.3166          159.911       NO       
      PART-1-1.9079        0.0141361          21.2318          145.052       NO       
      PART-1-1.9113       0.00522406          11.9959          157.154       NO       
      PART-1-1.9173        0.0144891          27.8711          153.016       NO       
      PART-1-1.9257       0.00334452          24.1636          161.545       NO       
      PART-1-1.9355        0.0128372          24.1325          152.788       NO       
      PART-1-1.9452       0.00277678          20.3041          163.292       NO       
      PART-1-1.9458       0.00750286          21.2253          157.862       NO       
      PART-1-1.9471       0.00342061          21.7802          159.319       NO       
      PART-1-1.9568       0.00726193          17.2568          158.295       NO       
      PART-1-1.9587       0.00587377          15.9238          157.528       NO       
      PART-1-1.9687       0.00350597           15.035          159.742       NO       
      PART-1-1.9692        0.0213454          9.89194          157.705       NO       
      PART-1-1.9861       0.00948468          13.3187           142.62       NO       
      PART-1-1.9915        0.0195978          22.9851          152.365       NO       
      PART-1-1.9987       0.00969874          13.3748          142.669       NO       
     PART-1-1.10005        0.0180224          21.0175          149.394       NO       
     PART-1-1.10021         0.012596          29.4716          147.161       NO       
     PART-1-1.10024       0.00587375          15.9237          157.528       NO       
     PART-1-1.10040        0.0171877          23.2136          153.071       NO       
     PART-1-1.10085         0.109825          9.60526          153.245       NO       
     PART-1-1.10147        0.0109708          14.2904          147.305       NO       
     PART-1-1.10328        0.0178681          19.4067          157.291       NO       
     PART-1-1.10334      1.41273E-05          7.96327          174.156       NO       
     PART-1-1.10387       0.00150507          16.7539          164.752       NO       
     PART-1-1.10555        0.0164732          20.3238          154.534       NO       
     PART-1-1.10617        0.0124397          13.4792          144.102       NO       
     PART-1-1.10631        0.0295288          14.8322          160.761       NO       
     PART-1-1.10650        0.0164729          20.3238          154.534       NO       
     PART-1-1.10777       0.00253957          17.2063           164.64       NO       
     PART-1-1.10832        0.0628116          8.56022          154.772       NO       
     PART-1-1.10866        0.0593137          8.56655          154.912       NO       
     PART-1-1.10932       0.00339648          13.9945          161.623       NO       
     PART-1-1.10957       0.00475678          14.4742          159.808       NO       
     PART-1-1.10983        0.0156189          26.6471          153.953       NO       
     PART-1-1.10997       0.00392178          10.4612          164.594       NO       
     PART-1-1.11036        0.0135792          10.8464          154.461       NO       
     PART-1-1.11052       0.00791788          5.43954          162.555       NO       
     PART-1-1.11124        0.0195343          19.1854          154.859       NO       
     PART-1-1.11232        0.0341215          9.51169          154.567       NO       
     PART-1-1.11237       0.00915905          12.2666          160.009       NO       
     PART-1-1.11328        0.0196005          23.3554          152.207       NO       
     PART-1-1.11565        0.0164753          20.3239          154.534       NO       
     PART-1-1.11593       0.00452271          13.1761           155.27       NO       
     PART-1-1.11594      0.000480479          5.19261          162.226       NO       
     PART-1-1.11607        0.0119385          13.3758          144.251       NO       
     PART-1-1.11611        0.0185174          16.7923          142.808       NO       
     PART-1-1.11684       0.00283562          20.4145          163.206       NO       
     PART-1-1.11783        0.0111447          18.1555          150.898       NO       
     PART-1-1.11794       0.00592975          16.5304          157.384       NO       
     PART-1-1.11809       0.00241826          17.3754           165.04       NO       
     PART-1-1.11977       0.00947248          13.3081          142.647       NO       
     PART-1-1.12018         0.020703          8.54598          158.238       NO       
     PART-1-1.12172       1.7315E-05          8.40202          173.841       NO       
     PART-1-1.12291      1.46164E-05          4.92405          171.167       NO       
     PART-1-1.12295       1.5408E-06          4.48256          175.808       NO       
     PART-1-1.12302      0.000544792          12.1699          166.609       NO       
     PART-1-1.12304       0.00103784          8.80052          162.618       NO       
     PART-1-1.12313        0.0232178          9.77753          154.318       NO       
     PART-1-1.12319       0.00205189          15.2415          162.401       NO       
     PART-1-1.12339      0.000183565          10.5339          169.241       NO       
     PART-1-1.12341      3.73909E-06          5.24656          175.026       NO       
     PART-1-1.12347      1.99764E-05          5.34263          170.183       NO       
     PART-1-1.12349      0.000835517          11.2787          163.601       NO       
     PART-1-1.12350      0.000815313           11.182           163.79       NO       
     PART-1-1.12351        0.0123414          11.3749          155.449       NO       
     PART-1-1.12359       0.00246961           9.6995          160.898       NO       
     PART-1-1.12361       0.00133115           9.3487          159.287       NO       
     PART-1-1.12366      0.000247534          7.43317          165.758       NO       
     PART-1-1.12368      9.34943E-05          8.80406          170.913       NO       
     PART-1-1.12369      0.000787844          12.0591          163.249       NO       
     PART-1-1.12377        0.0198647          12.6261          153.964       NO       
     PART-1-1.12381       0.00166332          6.13893          162.064       NO       
     PART-1-1.12383       0.00183534          9.68878          158.645       NO       
     PART-1-1.12385      0.000122878          9.74551          170.072       NO       
     PART-1-1.12386      0.000693079          12.5433          166.181       NO       
     PART-1-1.12387      0.000692994          8.42487          163.227       NO       
     PART-1-1.12388       0.00237656          7.10297          165.051       NO       
     PART-1-1.12394      5.81148E-05           6.4275            168.9       NO       
     PART-1-1.12395      0.000424203          12.2962          164.817       NO       
     PART-1-1.12397      0.000999232          11.1864          163.294       NO       
     PART-1-1.12398       0.00184977          15.3714          162.602       NO       
     PART-1-1.12411       0.00294345          7.82653          163.596       NO       
     PART-1-1.12417        0.0198518           23.553          152.068       NO       
     PART-1-1.12419       0.00441721          9.88151          159.311       NO       
     PART-1-1.12424       0.00668393          10.3538          158.439       NO       
     PART-1-1.12443      0.000754131           9.0139          163.144       NO       
     PART-1-1.12449        0.0313855          7.74147          158.669       NO       
     PART-1-1.12452        0.0177252          24.4287           150.95       NO       
     PART-1-1.12460       0.00301999          10.7332           159.73       NO       
     PART-1-1.12468      2.44484E-05           6.6027          171.295       NO       
     PART-1-1.12477      0.000806046          8.79771          163.164       NO       
     PART-1-1.12487      7.35447E-05          11.1622          170.235       NO       
     PART-1-1.12493      0.000995532          9.60472          160.107       NO       
     PART-1-1.12500       0.00120221          20.7521          161.408       NO       
     PART-1-1.12505      0.000479453          8.35896          164.876       NO       
     PART-1-1.12511      0.000703116          8.51797           163.45       NO       
     PART-1-1.12513       0.00067849          8.04899          163.889       NO       
     PART-1-1.12517      6.61794E-22      0.000224624          179.999       NO       
     PART-1-1.12519        0.0034317          17.3186          161.018       NO       
     PART-1-1.12528       0.00295625          14.8943          157.515       NO       
     PART-1-1.12529      0.000355603          11.0601          167.847       NO       
     PART-1-1.12533       0.00496952          13.8031          158.153       NO       
     PART-1-1.12534       0.00329802          16.2643          161.724       NO       
     PART-1-1.12549       3.5081E-07          3.63936          176.718       NO       
     PART-1-1.12556      0.000511179          8.68809          164.125       NO       
     PART-1-1.12557         0.019868          23.0809          150.653       NO       
     PART-1-1.12558      2.79317E-05          5.56866          169.682       NO       
     PART-1-1.12559      0.000646059          13.0761          166.592       NO       
     PART-1-1.12562      1.62056E-06          5.22424          175.127       NO       
     PART-1-1.12565      0.000531906          12.8096          166.574       NO       
     PART-1-1.12587      0.000518088          11.9738          166.963       NO       
     PART-1-1.12590      7.59163E-06          5.16985          169.937       NO       
     PART-1-1.12597        0.0140027          16.1328          154.645       NO       
     PART-1-1.12625      1.74788E-05          6.14171          169.141       NO       
     PART-1-1.12637        0.0154198           12.229          153.516       NO       
     PART-1-1.12640         0.009996          17.9889          157.185       NO       
     PART-1-1.12641        0.0021814           11.817          162.012       NO       
     PART-1-1.12669        0.0129801          16.2081          155.401       NO       
     PART-1-1.12680        0.0032704          17.0756          161.043       NO       
     PART-1-1.12681        0.0192524          20.7281          144.299       NO       
     PART-1-1.12711       0.00318298          16.9601          160.741       NO       
     PART-1-1.12726      7.28946E-05          8.76821           171.15       NO       
     PART-1-1.12727      8.24303E-05          6.27685          168.185       NO       
     PART-1-1.12728      9.97658E-05          9.51148          170.132       NO       
     PART-1-1.12734       0.00555089           14.233          157.608       NO       
     PART-1-1.12737       0.00448258          15.6733          155.314       NO       
     PART-1-1.12747        0.0133378          18.5935          136.742       NO       
     PART-1-1.12786       0.00429588           16.381          160.103       NO       
     PART-1-1.12787       0.00262588          11.1017           159.54       NO       
     PART-1-1.12788       0.00749567          17.2915          157.714       NO       
     PART-1-1.12789       0.00177244          11.9853          162.709       NO       
     PART-1-1.12792       0.00269215          16.1386          157.245       NO       
     PART-1-1.12793       0.00562598          9.97735           158.82       NO       
     PART-1-1.12816      0.000379722          9.48254          166.727       NO       
     PART-1-1.12819        0.0137319          15.3654          155.746       NO       
     PART-1-1.12823       0.00486885          9.80301           159.59       NO       
     PART-1-1.12828       0.00200735          10.6478          156.712       NO       
     PART-1-1.12830       0.00205197          10.0988          160.606       NO       
     PART-1-1.12831       0.00251951          16.2595          162.325       NO       
     PART-1-1.12840        0.0193078          20.6659          153.179       NO       
     PART-1-1.12842        0.0196624          12.3012          154.029       NO       
     PART-1-1.12846      0.000350378          7.73211           165.24       NO       
     PART-1-1.12850      0.000640845          13.0163          166.504       NO       
     PART-1-1.12853       0.00164287          9.27557          161.674       NO       
     PART-1-1.12855      0.000559184          11.6825          167.027       NO       
     PART-1-1.12856         0.001262          9.75112          158.415       NO       
     PART-1-1.12857      0.000447164          12.4672          164.617       NO       
     PART-1-1.12859       0.00758876          14.7607          157.724       NO       
     PART-1-1.12874      3.32195E-05          5.86013          168.032       NO       
     PART-1-1.12879      3.94146E-05          7.93278          172.051       NO       
     PART-1-1.12880      0.000317435          7.77055          163.524       NO       
     PART-1-1.12881      1.74306E-05          7.15174          172.229       NO       
     PART-1-1.12885      4.40514E-05           5.8889          169.304       NO       
     PART-1-1.12886       2.2027E-05          5.46709          170.586       NO       
     PART-1-1.12887        0.0001502          7.16433          167.129       NO       
     PART-1-1.12894       0.00278527           16.283          161.063       NO       
     PART-1-1.12895       0.00151354          8.97309          162.475       NO       
     PART-1-1.12928       0.00606417             14.4          157.243       NO       
     PART-1-1.12966       0.00380298          10.9974          158.221       NO       
     PART-1-1.12983        0.0129669          19.6357          147.428       NO       
     PART-1-1.12986        0.0063328          10.0946          158.837       NO       
     PART-1-1.12987       0.00341202          10.7479          159.059       NO       
     PART-1-1.12989       0.00813811          23.5513          148.271       NO       
     PART-1-1.12995       0.00894927          12.6273          155.941       NO       
     PART-1-1.13000        0.0170536           19.104          146.219       NO       
     PART-1-1.13013      5.17584E-05          8.48501          171.557       NO       
     PART-1-1.13047        0.0100136          16.3551          154.212       NO       
     PART-1-1.13051       0.00332617          14.2426          157.388       NO       
     PART-1-1.13052       0.00333805          10.1128          159.316       NO       
     PART-1-1.13054       0.00422021          17.4498          160.751       NO       
     PART-1-1.13066        0.0045931           10.571          160.427       NO       
     PART-1-1.13070        0.0158927          13.0911          150.431       NO       
     PART-1-1.13072       0.00674971          14.9132          156.363       NO       
     PART-1-1.13073       0.00631987          10.1412          156.456       NO       
     PART-1-1.13074       0.00266545          10.5227          158.089       NO       
     PART-1-1.13075       0.00604419          17.6631          159.102       NO       
     PART-1-1.13076       0.00370676          16.4913          155.711       NO       
     PART-1-1.13078      0.000459835          7.96371          165.073       NO       
     PART-1-1.13080        0.0108006          20.2885          154.975       NO       
     PART-1-1.13082       0.00823787          18.7232          156.756       NO       
     PART-1-1.13085       0.00292013          14.0644           159.71       NO       
     PART-1-1.13154      0.000618645          9.20852          163.511       NO       
     PART-1-1.13156       0.00962103          11.1159          157.047       NO       
     PART-1-1.13157      0.000149633          8.71367          168.201       NO       
     PART-1-1.13179       0.00174523          10.2169           157.88       NO       
     PART-1-1.13188      0.000582717          12.6859          163.774       NO       
     PART-1-1.13189      0.000458805          8.47411          164.816       NO       
     PART-1-1.13191       0.00233499          9.53956          161.089       NO       
     PART-1-1.13192        0.0154873          13.0801          154.383       NO       
     PART-1-1.13193        0.0012343          8.93347          162.113       NO       
     PART-1-1.13212      0.000121241           7.0996          170.735       NO       
     PART-1-1.13219      0.000565485          10.2158          165.345       NO       
     PART-1-1.13234      0.000561838          9.01543           163.75       NO       
     PART-1-1.13241      0.000657192          13.3762           166.18       NO       
     PART-1-1.13248        0.0118966          30.5658          149.769       NO       
     PART-1-1.13264      0.000420851          11.6997          167.532       NO       
     PART-1-1.13281      0.000692249           13.512          165.476       NO       
     PART-1-1.13288        0.0186355          12.5023          154.586       NO       
     PART-1-1.13293      0.000642314          9.05417          163.343       NO       
     PART-1-1.13295       0.00264936          10.2926          159.845       NO       
     PART-1-1.13297        0.0138212          20.3975          153.621       NO       
     PART-1-1.13330      0.000302808          11.0685           166.16       NO       
     PART-1-1.13332       0.00447568          21.2021          154.177       NO       
     PART-1-1.13333      0.000979312          8.59488          163.387       NO       
     PART-1-1.13336       0.00101821          13.4745          164.953       NO       
     PART-1-1.13338      6.20811E-05          8.98548          171.356       NO       
     PART-1-1.13340      0.000804365          12.5562          165.777       NO       
     PART-1-1.13342       0.00118853          9.48697          159.373       NO       
     PART-1-1.13343      0.000423978          8.43396          164.531       NO       
     PART-1-1.13344      0.000491383          12.5273          167.121       NO       
     PART-1-1.13347      0.000407443          11.8837           165.07       NO       
     PART-1-1.13348      0.000893421           8.7707           160.83       NO       
     PART-1-1.13356        0.0165615          22.4218          153.454       NO       
     PART-1-1.13362        0.0151781          19.6173          146.598       NO       
     PART-1-1.13365       0.00631525          14.8648          157.209       NO       
     PART-1-1.13366      0.000807177          13.6617          165.135       NO       
     PART-1-1.13367      0.000478159          11.8155          167.051       NO       
     PART-1-1.13368       0.00416042          15.6985          155.657       NO       
     PART-1-1.13373       0.00271089          10.0529          158.958       NO       
     PART-1-1.13374        0.0126735          12.8794          154.522       NO       
     PART-1-1.13378      0.000116611          8.04698          169.069       NO       
     PART-1-1.13388      4.58546E-07          3.98049          176.452       NO       
     PART-1-1.13389       0.00490339          10.9132          156.392       NO       
     PART-1-1.13395      0.000963428           11.132          163.608       NO       
     PART-1-1.13396       0.00438932           17.804          159.976       NO       
     PART-1-1.13402       0.00313687          16.3946          161.253       NO       
     PART-1-1.13403       0.00350321          11.0549          159.173       NO       
     PART-1-1.13418        0.0172414          20.8683          144.919       NO       
     PART-1-1.13421        0.0119306          15.7498          156.169       NO       
     PART-1-1.13427      9.18007E-05          6.69209          168.529       NO       
     PART-1-1.13467       0.00527847          17.7133           158.74       NO       
     PART-1-1.13494      1.75119E-05           5.2545          175.084       NO       
     PART-1-1.13500       0.00118377          13.6515          164.368       NO       
     PART-1-1.13508          0.01334          18.5938          136.738       NO       
     PART-1-1.13525       0.00366512          21.0293          156.088       NO       
     PART-1-1.13583      5.85921E-06          4.59813          172.388       NO       
     PART-1-1.13586       0.00576151           10.131          159.225       NO       
     PART-1-1.13595       0.00236034          10.8316          159.537       NO       
     PART-1-1.13596       0.00437514          16.2471          159.975       NO       
     PART-1-1.13610       0.00328588           13.601          157.762       NO       
     PART-1-1.13611       0.00166269          8.30489          162.815       NO       
     PART-1-1.13612       0.00260187          9.30948          161.481       NO       
     PART-1-1.13615       0.00334963          15.9657          161.996       NO       
     PART-1-1.13616       0.00134832          9.23598           159.87       NO       
     PART-1-1.13618       0.00782159          14.8457          155.679       NO       
     PART-1-1.13619       0.00556519          15.6853          154.335       NO       
     PART-1-1.13621       0.00128338          13.7301          164.229       NO       
     PART-1-1.13631      0.000425765           11.554          165.137       NO       
     PART-1-1.13634       0.00157797          9.28871           161.88       NO       
     PART-1-1.13636      0.000487269           8.4489          164.424       NO       
     PART-1-1.13637        0.0184909           13.159          152.936       NO       
     PART-1-1.13640       0.00835446          11.5307          152.967       NO       
     PART-1-1.13641       0.00206361          15.2103          158.773       NO       
     PART-1-1.13642       0.00390621           16.106          161.368       NO       
     PART-1-1.13645      6.15422E-05            6.665          168.557       NO       
     PART-1-1.13646       0.00705467          17.9113          157.341       NO       
     PART-1-1.13661       0.00323885          11.2052          157.538       NO       
     PART-1-1.13666      0.000792714          10.5673          164.303       NO       
     PART-1-1.13672      0.000971323          8.59718          163.084       NO       
     PART-1-1.13677       0.00132681          14.2152           163.87       NO       
     PART-1-1.13678      0.000419871          8.42792          164.782       NO       
     PART-1-1.13684      0.000476767          8.09095          164.985       NO       
     PART-1-1.13685      0.000955085          11.3347          163.429       NO       
     PART-1-1.13686       0.00298944          16.5724          161.214       NO       
     PART-1-1.13698       0.00046145          10.1372          165.785       NO       
     PART-1-1.13709      0.000623322           10.774          164.837       NO       
     PART-1-1.13710       0.00137175          14.0842          164.579       NO       
     PART-1-1.13711       0.00183406          15.1654          162.676       NO       
     PART-1-1.13712       0.00111619          9.03087          163.387       NO       
     PART-1-1.13718      0.000140957          7.14533          167.335       NO       
     PART-1-1.13723      0.000160543          10.3272          169.727       NO       
     PART-1-1.13725      0.000451416           12.289          166.793       NO       
     PART-1-1.13729       0.00305172          13.2052          160.202       NO       
     PART-1-1.13731       0.00229408          10.2754          160.446       NO       
     PART-1-1.13747       0.00301029            10.48          159.396       NO       
     PART-1-1.13755        0.0163572           12.983          154.451       NO       
     PART-1-1.13759        0.0161943          20.5873          154.127       NO       
     PART-1-1.13760       0.00399769          10.3913          158.621       NO       
     PART-1-1.13761      0.000182497          7.10759          166.432       NO       
     PART-1-1.13763      0.000571142          8.60037          161.815       NO       
     PART-1-1.13764      0.000213415          10.5429          167.043       NO       
     PART-1-1.13765      0.000514898          12.5985          166.509       NO       
     PART-1-1.13767      0.000159098          10.0803          169.606       NO       
     PART-1-1.13768       0.00020984          9.05044          167.406       NO       
     PART-1-1.13771       0.00414733          18.1545          159.615       NO       
     PART-1-1.13783      0.000425466          7.82174          165.134       NO       
     PART-1-1.13792       0.00283861          16.5077          161.854       NO       
     PART-1-1.13840       0.00281174          9.85147           160.77       NO       
     PART-1-1.13842        0.0058052           14.213           157.41       NO       
     PART-1-1.13851      0.000504381          11.9827          167.485       NO       
     PART-1-1.13862       0.00801296          18.2553          157.117       NO       
     PART-1-1.13863       0.00663507          18.1382          158.842       NO       
     PART-1-1.13864       0.00505198          10.5557          159.496       NO       
     PART-1-1.13866       0.00202943           12.596          161.745       NO       
     PART-1-1.13887       0.00849328          15.2017          155.255       NO       
     PART-1-1.13888       0.00284335          9.51322          160.953       NO       
     PART-1-1.13890       0.00365224          16.3625          161.598       NO       
     PART-1-1.13902       0.00249933          16.6252          161.258       NO       
     PART-1-1.13903       0.00767945          11.2229          153.763       NO       
     PART-1-1.13908       0.00316676          9.66525          161.565       NO       
     PART-1-1.13924      0.000481207          10.2979          165.747       NO       
     PART-1-1.13935        0.0185435          11.3938          154.591       NO       
     PART-1-1.13952       0.00343903          9.77613          160.162       NO       
     PART-1-1.13958         0.019744          11.9265           154.29       NO       
     PART-1-1.13963      0.000926534          13.2574          164.938       NO       
     PART-1-1.14032       0.00692232          14.2556          156.586       NO       
     PART-1-1.14088      0.000123285          6.23472          168.292       NO       
     PART-1-1.14094      0.000373872          12.0186          166.905       NO       
     PART-1-1.14095       0.00259334          14.5628          162.268       NO       
     PART-1-1.14097       0.00120886          13.9471          161.225       NO       
     PART-1-1.14099       0.00455032          10.5731          155.411       NO       
     PART-1-1.14128       0.00018696          8.92585          167.708       NO       
     PART-1-1.14161         0.007891          11.4895          153.512       NO       
     PART-1-1.14163       0.00194424           14.912           159.11       NO       
     PART-1-1.14168      0.000617075          9.07147          163.967       NO       
     PART-1-1.14169       0.00237439          11.0337          155.856       NO       
     PART-1-1.14171       0.00448481          16.3126          159.887       NO       
     PART-1-1.14184        0.0188769          17.8224          153.014       NO       
     PART-1-1.14187       0.00144978          13.9931          164.389       NO       
     PART-1-1.14189       0.00143162          14.0139          160.405       NO       
     PART-1-1.14190      0.000528939          7.76469          165.103       NO       
     PART-1-1.14191       0.00521969          11.7837          155.171       NO       
     PART-1-1.14192      0.000439353          11.2117          167.546       NO       
     PART-1-1.14195      0.000465604          9.45546          166.004       NO       
     PART-1-1.14212       0.00294984          17.1772          161.367       NO       
     PART-1-1.14216         0.010397           19.109          155.684       NO       
     PART-1-1.14220       0.00460141          16.3758          159.749       NO       
     PART-1-1.14223       0.00131007          9.79366          158.385       NO       
     PART-1-1.14226      0.000460638          12.4747          164.531       NO       
     PART-1-1.14229       0.00035645          9.26914          167.018       NO       
     PART-1-1.14230      0.000610023          11.9181          166.751       NO       
     PART-1-1.14236        0.0004827          9.50281          166.206       NO       
     PART-1-1.14238       0.00109489          12.9791          164.884       NO       
     PART-1-1.14241      0.000597982          8.58668          164.711       NO       
     PART-1-1.14242       0.00157679          13.7966          164.064       NO       
     PART-1-1.14243       0.00120973          14.1963          160.898       NO       
     PART-1-1.14252        0.0110533          14.3431          156.547       NO       
     PART-1-1.14256      0.000894067          12.7179          165.656       NO       
     PART-1-1.14258        0.0016229          15.1337          163.898       NO       
     PART-1-1.14259      0.000555893          8.28777          164.335       NO       
     PART-1-1.14260       0.00133612          9.48199          161.799       NO       
     PART-1-1.14263       0.00335347          11.4526          155.442       NO       
     PART-1-1.14266      0.000301592          8.90474          167.284       NO       
     PART-1-1.14274      0.000457481          7.95197          165.167       NO       
     PART-1-1.14275      0.000604901          11.7693          164.112       NO       
     PART-1-1.14277       0.00216471          9.64215          159.344       NO       
     PART-1-1.14280      0.000544617           12.264          167.272       NO       
     PART-1-1.14289      0.000727968          13.3293          165.927       NO       
     PART-1-1.14293      0.000715646          12.8172          166.289       NO       
     PART-1-1.14296       0.00118696          13.6241          165.094       NO       
     PART-1-1.14297      0.000604623          12.9835           166.16       NO       
     PART-1-1.14298       0.00182371          15.1853          162.601       NO       
     PART-1-1.14299      0.000966466          8.76292          163.941       NO       
     PART-1-1.14300      0.000709518          8.89402          162.537       NO       
     PART-1-1.14302      0.000623954          10.8554          164.817       NO       
     PART-1-1.14303       0.00162164          9.71912          158.769       NO       
     PART-1-1.14304      0.000519332          12.1761          164.349       NO       
     PART-1-1.14307        0.0019763          15.1736          162.572       NO       
     PART-1-1.14318       0.00233125          9.65915          161.682       NO       
     PART-1-1.14368        0.0241521          5.12428          148.923       NO       
     PART-1-1.14369        0.0140972          10.8679          153.159       NO       
     PART-1-1.14370       0.00121275          14.8008          163.244       NO       
     PART-1-1.14374        0.0916445          6.67784          133.144       NO       
     PART-1-1.14384      0.000415099          7.95784          164.974       NO       
     PART-1-1.14386        0.0135019          13.0706          154.135       NO       
     PART-1-1.14394      0.000497128          7.49921          165.782       NO       
     PART-1-1.14397        0.0142699          17.5794          153.812       NO       
     PART-1-1.14401      0.000454011          8.84603          163.685       NO       
     PART-1-1.14402      0.000410309          10.7698          167.847       NO       
     PART-1-1.14414      9.58142E-05          7.08081          165.376       NO       
     PART-1-1.14415      8.84592E-06          4.83144          171.926       NO       
     PART-1-1.14417      9.52648E-06          5.63035          172.708       NO       
     PART-1-1.14419      9.63803E-06          6.51237          173.918       NO       
     PART-1-1.14422      6.88477E-05           8.7264          171.197       NO       
     PART-1-1.14423      7.80112E-05          6.30758          168.226       NO       
     PART-1-1.14424      4.69732E-05          8.67529          170.337       NO       
     PART-1-1.14426      1.62871E-05            7.294          172.833       NO       
     PART-1-1.14427       0.00126092          9.66303          159.164       NO       
     PART-1-1.14430      4.76865E-05          8.46373          171.818       NO       
     PART-1-1.14431      9.48685E-05          9.56943          170.162       NO       
     PART-1-1.14432      0.000860059          13.0533          165.481       NO       
     PART-1-1.14435         0.014524          21.6843          154.327       NO       
     PART-1-1.14436        0.0110802          12.4878           155.47       NO       
     PART-1-1.14438        0.0152817          19.6193           146.56       NO       
     PART-1-1.14442        0.0124043          15.6157          155.226       NO       
     PART-1-1.14451       0.00141617           13.826          160.626       NO       
     PART-1-1.14457      0.000962086          8.72066          162.823       NO       
     PART-1-1.14459       0.00552184          11.2577          155.516       NO       
     PART-1-1.14460       0.00300607          16.0381          161.474       NO       
     PART-1-1.14461       0.00010305          9.59974          168.744       NO       
     PART-1-1.14462       0.00333441          10.8271           159.41       NO       
     PART-1-1.14466      7.42803E-05          6.26557          168.323       NO       
     PART-1-1.14467       0.00090817          10.9436          163.962       NO       
     PART-1-1.14468       0.00023802          7.90579          163.612       NO       
     PART-1-1.14469      0.000207385          10.7617          169.175       NO       
     PART-1-1.14470      2.58396E-05          5.65278          170.378       NO       
     PART-1-1.14471      0.000181076          7.43494          166.844       NO       
     PART-1-1.14473      8.02116E-05          7.73626          169.436       NO       
     PART-1-1.14475      2.86054E-05          7.78949          172.563       NO       
     PART-1-1.14477      3.10248E-05          6.08309          167.756       NO       
     PART-1-1.14481      1.43727E-05          5.98013          172.138       NO       
     PART-1-1.14483      2.54675E-05          7.86202          172.261       NO       
     PART-1-1.14486      0.000432417          11.9912           164.85       NO       
     PART-1-1.14487        0.0161558           20.212          145.742       NO       
     PART-1-1.14494       0.00116959          13.8735          164.385       NO       
     PART-1-1.14507      0.000659472          12.6599          163.452       NO       
     PART-1-1.14511       0.00172865          14.6538          163.302       NO       
     PART-1-1.14556       7.8023E-06          6.21997          174.237       NO       
     PART-1-1.14570      0.000432448          12.1246           167.51       NO       
     PART-1-1.14636       0.00714109          14.9079          156.024       NO       
     PART-1-1.14637       0.00312606          16.0206          162.136       NO       
     PART-1-1.14656       0.00537085          17.1344           159.93       NO       
     PART-1-1.14662      0.000141095          6.81498          167.756       NO       
     PART-1-1.14663       0.00489076           15.848          154.833       NO       
     PART-1-1.14664      0.000181464          10.2791           169.34       NO       
     PART-1-1.14666      0.000680409          12.9252          165.853       NO       
     PART-1-1.14668       0.00029082           9.4953          166.536       NO       
     PART-1-1.14669      0.000739884          13.4645            165.6       NO       
     PART-1-1.14670       0.00406671          10.0217          160.815       NO       
     PART-1-1.14672      0.000553159          8.47114          162.285       NO       
     PART-1-1.14682      5.31103E-05          5.79079          169.093       NO       
     PART-1-1.14690        0.0132491           12.037          155.413       NO       
     PART-1-1.14691        0.0142314          20.4879          154.509       NO       
     PART-1-1.14693       0.00230639          9.64506          160.743       NO       
     PART-1-1.14694       0.00341432          13.5939          159.511       NO       
     PART-1-1.14699        0.0110258          11.5144          154.209       NO       
     PART-1-1.14701       0.00999321          19.3837          155.466       NO       
     PART-1-1.14703       0.00288317          16.2194          162.241       NO       
     PART-1-1.14706      0.000369756          10.9106          167.956       NO       
     PART-1-1.14707        0.0163855          11.2117          155.091       NO       
     PART-1-1.14708      0.000441737           7.6155          165.491       NO       
     PART-1-1.14710      0.000477382          11.5028          167.378       NO       
     PART-1-1.14711      0.000445514          8.06284          162.426       NO       
     PART-1-1.14724       0.00881272          18.8882          157.423       NO       
     PART-1-1.14726       0.00341511          14.1435          159.427       NO       
     PART-1-1.14727        0.0136531          20.5754           154.01       NO       
     PART-1-1.14731       0.00657815          10.9463          159.278       NO       
     PART-1-1.14737       0.00453836          10.8989          158.264       NO       
     PART-1-1.14743       0.00232568          13.1914          161.144       NO       
     PART-1-1.14759       0.00946291          11.4117          153.275       NO       
     PART-1-1.14787       0.00175985          14.9441          162.956       NO       
     PART-1-1.14908        0.0188756          21.6264          143.791       NO       
     PART-1-1.14917        0.0190409          14.7443          151.888       NO       
     PART-1-1.14919       0.00936307          11.2089           158.98       NO       
     PART-1-1.14920       0.00132173          13.3035          151.488       NO       
     PART-1-1.14945       0.00553238          14.3078          157.302       NO       
     PART-1-1.14955      1.62428E-05          5.23998          171.169       NO       
     PART-1-1.14961       0.00170967           9.9156          158.337       NO       
     PART-1-1.14977       0.00408706          17.7395          160.524       NO       
     PART-1-1.14981        0.0177912          21.0742          152.239       NO       
     PART-1-1.14985        0.0165885          20.9104          152.559       NO       
     PART-1-1.14991      0.000783772          12.5709          165.952       NO       
     PART-1-1.14994        0.0015059          9.94746          158.169       NO       
     PART-1-1.14996      0.000514339          12.5621          164.197       NO       
     PART-1-1.15007        0.0069114          16.5046          152.827       NO       
     PART-1-1.15018        0.0032572          17.0059          161.447       NO       
     PART-1-1.15022       0.00942342          12.0703          151.979       NO       
     PART-1-1.15031       0.00574007          17.0399          158.517       NO       
     PART-1-1.15032       0.00304981          11.0651          158.102       NO       
     PART-1-1.15033       0.00297546          9.52247          161.432       NO       
     PART-1-1.15034       0.00386821          16.2388          161.388       NO       
     PART-1-1.15048       0.00149474          12.0083          162.965       NO       
     PART-1-1.15049       0.00248747          10.5543          159.873       NO       
     PART-1-1.15050       0.00313209          13.4134           160.11       NO       
     PART-1-1.15051      0.000545293          12.8331          166.394       NO       
     PART-1-1.15067        0.0176833          21.1805          153.656       NO       
     PART-1-1.15068      0.000137065          6.98043          167.298       NO       
     PART-1-1.15072      0.000471895          8.17933          164.746       NO       
     PART-1-1.15073         0.017883          20.7849          154.173       NO       
     PART-1-1.15074      0.000326519          10.1313          165.928       NO       
     PART-1-1.15075      0.000156811          10.3242          169.877       NO       
     PART-1-1.15076      0.000245831          7.22932          164.705       NO       
     PART-1-1.15078        0.0182679          12.5596          154.938       NO       
     PART-1-1.15079       0.00244265          10.1229          159.901       NO       
     PART-1-1.15081       0.00301773          16.7955          161.795       NO       
     PART-1-1.15088        0.0132221          12.7858             151.       NO       
     PART-1-1.15093       0.00318184          16.2074           156.51       NO       
     PART-1-1.15094       0.00658667          17.8898          157.952       NO       
     PART-1-1.15099       0.00068006          13.6813          165.315       NO       
     PART-1-1.15100        0.0180634          21.8972          152.644       NO       
     PART-1-1.15102        0.0147475          21.1182          154.362       NO       
     PART-1-1.15103        0.0109344          12.1441          157.134       NO       
     PART-1-1.15104       0.00253238           10.176          159.845       NO       
     PART-1-1.15105       0.00039291          11.5079          167.854       NO       
     PART-1-1.15107       0.00444466          14.6849          158.108       NO       
     PART-1-1.15108        0.0132997           19.892          154.768       NO       
     PART-1-1.15109      0.000284415          9.95612          166.315       NO       
     PART-1-1.15110       0.00028762           7.3863          164.206       NO       
     PART-1-1.15112      0.000421047          8.05643          165.349       NO       
     PART-1-1.15116      0.000498631          12.1376          167.352       NO       
     PART-1-1.15118       0.00215451          9.96787           160.17       NO       
     PART-1-1.15120       0.00186884           15.019          163.048       NO       
     PART-1-1.15122        0.0178304          12.6485          154.463       NO       
     PART-1-1.15131       0.00185541          14.8266          162.956       NO       
     PART-1-1.15134      0.000791397          8.81875          162.844       NO       
     PART-1-1.15137       0.00305277          10.6328          156.692       NO       
     PART-1-1.15139       0.00155827          9.51295          162.114       NO       
     PART-1-1.15141      0.000603214          10.4097          165.176       NO       
     PART-1-1.15184       0.00225798          12.7635          160.977       NO       
     PART-1-1.15214       0.00323731          31.1205          155.902       NO       
     PART-1-1.15230        0.0183743          13.4501            152.8       NO       
     PART-1-1.15231      0.000160788           9.6291          169.836       NO       
     PART-1-1.15254       0.00033419          7.90193          166.196       NO       
     PART-1-1.15260       0.00226712           12.798          160.809       NO       
     PART-1-1.15269      7.16689E-05          5.87896          169.331       NO       
     PART-1-1.15271      0.000301504          12.2036          167.064       NO       
     PART-1-1.15273      0.000142017          9.24893          167.796       NO       
     PART-1-1.15275        0.0079078          11.8298          152.789       NO       
     PART-1-1.15276       0.00191724          12.4057          162.193       NO       
     PART-1-1.15277       0.00291049          17.1157           161.32       NO       
     PART-1-1.15278       0.00204354           15.314          158.725       NO       
     PART-1-1.15290       0.00778751           17.806          157.262       NO       
     PART-1-1.15298        0.0119387          13.1748          157.285       NO       
     PART-1-1.15299       0.00551631           16.475          155.117       NO       
     PART-1-1.15306       0.00224991          12.5686          161.585       NO       
     PART-1-1.15314       0.00509182          13.7239          157.896       NO       
     PART-1-1.15341      0.000161675          9.03377           167.98       NO       
     PART-1-1.15344      0.000177442          7.32842          164.154       NO       
     PART-1-1.15345       0.00338972          9.25511          161.319       NO       
     PART-1-1.15346       0.00213235           10.918          159.382       NO       
     PART-1-1.15350       0.00211331          13.0935          161.474       NO       
     PART-1-1.15355      0.000186873          11.1478          169.082       NO       
     PART-1-1.15371       0.00463501          9.60394          159.234       NO       
     PART-1-1.15375       0.00139722          15.0851          163.788       NO       
     PART-1-1.15376       0.00098001          14.4886          164.747       NO       
     PART-1-1.15378      0.000147696          6.39858          167.471       NO       
     PART-1-1.15379      0.000759462          8.46071          162.451       NO       
     PART-1-1.15380       0.00116918          10.1303          161.957       NO       
     PART-1-1.15397       0.00620569          16.6948          158.537       NO       
     PART-1-1.15402       0.00253344          14.7295          158.164       NO       
     PART-1-1.15404        0.0199584          21.0106          154.083       NO       
     PART-1-1.15405       0.00269988          15.9292          161.618       NO       
     PART-1-1.15421       0.00154101          9.30076          161.883       NO       
     PART-1-1.15423       0.00215977          15.7362          162.128       NO       
     PART-1-1.15427      0.000728134          11.0592          164.263       NO       
     PART-1-1.15442       0.00128233          9.17902          160.047       NO       
     PART-1-1.15452       0.00125515          13.7151          164.279       NO       
     PART-1-1.15453      2.87668E-05          6.00775           170.12       NO       
     PART-1-1.15456        0.0141392          22.8309          144.584       NO       
     PART-1-1.15500        0.0188798          20.8404          144.334       NO       
     PART-1-1.15526       0.00266154          16.7943          160.966       NO       
     PART-1-1.15530       0.00184447          12.6634          162.086       NO       
     PART-1-1.15534       0.00299267           9.4847          161.758       NO       
     PART-1-1.15547      0.000737467          6.01887          159.385       NO       
     PART-1-1.15560        0.0100327          13.8227          158.247       NO       
     PART-1-1.15564        0.0158883          17.4536          154.145       NO       
     PART-1-1.15574       0.00019993          9.42208          167.337       NO       
     PART-1-1.15588        0.0194047          22.5863          151.361       NO       
     PART-1-1.15617      1.45682E-21      0.000207783          179.998       NO       
     PART-1-1.15619      0.000234392             8.96          167.423       NO       
     PART-1-1.15627      0.000842965          10.8072          163.881       NO       
     PART-1-1.15630      7.38499E-05          7.92551          169.403       NO       
     PART-1-1.15631      5.78587E-05           8.8424            171.5       NO       
     PART-1-1.15632      5.18505E-05          6.26759          169.078       NO       
     PART-1-1.15634      0.000479621           8.5047          164.381       NO       
     PART-1-1.15635      0.000152599          10.5936          169.034       NO       
     PART-1-1.15636         0.016874           13.163          153.147       NO       
     PART-1-1.15638       0.00108546          13.2989          164.817       NO       
     PART-1-1.15642      0.000685566          10.9654          164.499       NO       
     PART-1-1.15643        0.0183232          19.8585          145.264       NO       
     PART-1-1.15645       0.00202819          15.5035          162.316       NO       
     PART-1-1.15651       0.00132823          9.00757          162.433       NO       
     PART-1-1.15661       0.00314532          16.6399          161.351       NO       
     PART-1-1.15663       0.00293533          16.5718           161.19       NO       
     PART-1-1.15667      6.24447E-05          8.62793          169.994       NO       
     PART-1-1.15668       0.00297258          10.0062          158.258       NO       
     PART-1-1.15669       0.00252426           10.534          160.558       NO       
     PART-1-1.15670      5.99445E-05          6.06095          168.594       NO       
     PART-1-1.15672      0.000946451          11.3976          163.431       NO       
     PART-1-1.15677       0.00014112          7.09342          165.323       NO       
     PART-1-1.15680      9.19357E-05          8.14915          168.909       NO       
     PART-1-1.15681      0.000155008          7.31789          167.288       NO       
     PART-1-1.15704       0.00217848          9.14651           161.75       NO       
     PART-1-1.15705       0.00716597          14.9198          155.849       NO       
     PART-1-1.15710       0.00276705          15.5701          162.683       NO       
     PART-1-1.15728       0.00496213          16.7448           160.37       NO       
     PART-1-1.15731       0.00218161          15.1202          158.617       NO       
     PART-1-1.15734       0.00934986          11.3856          153.102       NO       
     PART-1-1.15749       0.00456049          17.5065           161.76       NO       
     PART-1-1.15753        0.0183091          17.5154          152.651       NO       
     PART-1-1.15763        0.0194233          17.4162          152.951       NO       
     PART-1-1.15785       0.00375409           11.388          156.884       NO       
     PART-1-1.15798        0.0030823          17.2795          160.374       NO       
     PART-1-1.15807       0.00239558          13.3129          161.085       NO       
     PART-1-1.15808       1.3875E-06          3.41155          173.965       NO       
     PART-1-1.15810      4.43081E-05           5.7508          169.875       NO       
     PART-1-1.15811       0.00020328          6.87549          166.629       NO       
     PART-1-1.15813      0.000109421          8.31628          168.521       NO       
     PART-1-1.15814      4.99888E-05          8.22543          172.022       NO       
     PART-1-1.15815        0.0198669          16.5295          153.428       NO       
     PART-1-1.15816       0.00375456          17.0834          160.087       NO       
     PART-1-1.15817       0.00368933          16.9099          159.897       NO       
     PART-1-1.15818       0.00462485          11.2703          157.808       NO       
     PART-1-1.15819      0.000607787          12.3877          167.054       NO       
     PART-1-1.15820      0.000509198          7.97822          165.048       NO       
     PART-1-1.15823      0.000747517          12.0697          163.395       NO       
     PART-1-1.15833       0.00202703           11.964          162.343       NO       
     PART-1-1.15834      8.27935E-06          4.98566           170.09       NO       
     PART-1-1.15840         0.017955          22.5052          151.511       NO       
     PART-1-1.15845      0.000885935           12.904          166.012       NO       
     PART-1-1.15848      4.74285E-05          6.01524           168.99       NO       
     PART-1-1.15849       4.1614E-05          6.20942          167.381       NO       
     PART-1-1.15851       0.00147318          14.6527          163.278       NO       
     PART-1-1.15853      0.000728948          8.36694           164.71       NO       
     PART-1-1.15854        0.0145155          16.7222          154.268       NO       
     PART-1-1.15855      0.000122829          10.1725          169.434       NO       
     PART-1-1.15856       4.2501E-05          8.15869          171.887       NO       
     PART-1-1.15857      8.78427E-05          6.76265          165.793       NO       
     PART-1-1.15858       4.1421E-05          4.36809           172.75       NO       
     PART-1-1.15859      1.14907E-05          7.03308            173.2       NO       
     PART-1-1.15860       5.6056E-05          5.95154          169.718       NO       
     PART-1-1.15862      6.04376E-05          7.70008           169.83       NO       
     PART-1-1.15863      0.000603226          8.63585            161.8       NO       
     PART-1-1.15866      0.000171645          7.13175          167.211       NO       
     PART-1-1.15867      3.00926E-05          6.79982          170.976       NO       
     PART-1-1.15868      0.000291262          9.48081          166.635       NO       
     PART-1-1.15869      0.000221913          10.5339          166.961       NO       
     PART-1-1.15873       0.00623661          14.4355          157.374       NO       
     PART-1-1.15874      0.000197627          10.4685          169.462       NO       
     PART-1-1.15876      0.000202595          10.2399          169.142       NO       
     PART-1-1.15881       0.00283933          14.6582          157.791       NO       
     PART-1-1.15895       0.00739747          18.8126          158.093       NO       
     PART-1-1.15897       0.00242619          10.1475          159.571       NO       
     PART-1-1.15898        0.0056903          11.0821          158.609       NO       
     PART-1-1.15901       0.00734246          18.2352          157.648       NO       
     PART-1-1.15902      0.000333725          8.10598          162.807       NO       
     PART-1-1.15906        0.0019161          12.4296          161.763       NO       
     PART-1-1.15908      0.000321503          11.6611          167.568       NO       
     PART-1-1.15913      0.000254937          10.8094          168.917       NO       
     PART-1-1.15916       0.00684747          14.4635          157.034       NO       
     PART-1-1.15917       0.00021868          7.37218          166.893       NO       
     PART-1-1.15919       0.00342633          16.8674          161.502       NO       
     PART-1-1.15941      0.000749775          13.3616          165.563       NO       
     PART-1-1.15942      7.04525E-05          9.67799          170.373       NO       
     PART-1-1.15943      2.42833E-05          5.49206          168.879       NO       
     PART-1-1.15944      4.64122E-05          6.06712          169.075       NO       
     PART-1-1.15947      1.28286E-05           6.6415          172.768       NO       
     PART-1-1.15949      4.16314E-05          8.10258           171.87       NO       
     PART-1-1.15951      8.76452E-05          8.85282          169.424       NO       
     PART-1-1.15954       0.00375749          10.5397          159.444       NO       
     PART-1-1.15956      0.000410229          8.13499          164.826       NO       
     PART-1-1.15957       0.00265843          15.5408          161.629       NO       
     PART-1-1.15958       0.00163167          9.50881           161.42       NO       
     PART-1-1.15959       0.00159877            13.27          160.562       NO       
     PART-1-1.15960       0.00199925          15.5005          163.352       NO       
     PART-1-1.15963       0.00011673          9.71896          170.491       NO       
     PART-1-1.15971        0.0153833          12.4211          156.132       NO       
     PART-1-1.15980      0.000233007          7.08829          166.228       NO       
     PART-1-1.15983      0.000153426          9.84342          168.077       NO       
     PART-1-1.15986       0.00444116          17.8533          159.206       NO       
     PART-1-1.15987       3.9822E-05          5.82732          170.137       NO       
     PART-1-1.15991      3.72705E-05          5.83639           167.95       NO       
     PART-1-1.15992      0.000383792          7.94526          165.975       NO       
     PART-1-1.15993      0.000317122           10.036          166.195       NO       
     PART-1-1.15994      0.000249648          7.64854          165.128       NO       
     PART-1-1.15996      4.47844E-05          8.05363          172.054       NO       
     PART-1-1.16000      4.55099E-05          7.52157          170.091       NO       
     PART-1-1.16001      8.65782E-05           9.9094          169.962       NO       
     PART-1-1.16006      6.47535E-06          4.42696          172.175       NO       
     PART-1-1.16013      0.000170797          10.1012          167.714       NO       
     PART-1-1.16020      0.000452874          8.16119          162.621       NO       
     PART-1-1.16027        0.0002286          8.06248          163.564       NO       
     PART-1-1.16029       0.00552548           16.361          153.996       NO       
     PART-1-1.16031      2.97282E-05          7.96009          172.356       NO       
     PART-1-1.16040       0.00010165          9.62705          168.686       NO       
     PART-1-1.16041      0.000237921          7.76751          165.207       NO       
     PART-1-1.16078        0.0189429          17.4528          153.655       NO       
     PART-1-1.16085        0.0182487          20.7692          144.573       NO       
[...]
     PART-1-1.81561      2.27468E-06          5.30639          174.672       NO       
     PART-1-1.81563       0.00439113          17.6327          160.126       NO       
     PART-1-1.81566      8.19609E-06          6.51509          173.208       NO       
     PART-1-1.81567      1.13678E-05          5.01556          170.953       NO       
     PART-1-1.81568      1.41073E-05          5.32873          169.208       NO       
     PART-1-1.81571      6.03705E-05          10.1241          161.251       NO       
     PART-1-1.81580      4.24165E-05          8.41618          170.643       NO       
     PART-1-1.81591      1.72814E-05          7.40776          172.114       NO       
     PART-1-1.81596      2.16525E-05          7.56753          172.732       NO       
     PART-1-1.81659       0.00310539          16.3262          160.734       NO       
     PART-1-1.81716       0.00996342          19.8581          156.751       NO       
     PART-1-1.81725       0.00270334           16.032            161.3       NO       
     PART-1-1.81727       0.00828208          17.9619          157.432       NO       
     PART-1-1.81728       0.00335853           10.616           158.84       NO       
     PART-1-1.81761        0.0116607          11.0449          151.742       NO       
     PART-1-1.81762      7.73418E-05          7.57662           169.57       NO       
     PART-1-1.81763      0.000169711          10.4305          169.231       NO       
     PART-1-1.81774      4.44805E-06          5.97852          173.837       NO       
     PART-1-1.81787      0.000663825          8.62889          163.284       NO       
     PART-1-1.81789       0.00075022          12.9499          162.992       NO       
     PART-1-1.81805      5.11592E-06           4.8882          173.625       NO       
     PART-1-1.81806       0.00919123           15.744          154.264       NO       
     PART-1-1.81807        0.0171061          22.6103          151.565       NO       
     PART-1-1.81811       0.00211628          8.92922          161.799       NO       
     PART-1-1.81814       0.00269446          15.4668          162.904       NO       
     PART-1-1.81817       0.00188694          15.1813          162.838       NO       
     PART-1-1.81818      0.000115146          9.41544          168.721       NO       
     PART-1-1.81819       0.00226674          14.2432          158.844       NO       
     PART-1-1.81827       0.00363845          14.1887          157.028       NO       
     PART-1-1.81834      0.000116739          9.71571          170.196       NO       
     PART-1-1.81839       0.00603404          11.3968          155.836       NO       
     PART-1-1.81852       0.00391113          15.8183          161.422       NO       
     PART-1-1.81874      0.000404493          11.5201          165.178       NO       
     PART-1-1.81875      0.000252068          7.23615            166.1       NO       
     PART-1-1.81881        0.0011494           9.0666          163.274       NO       
     PART-1-1.81886      0.000141402          10.1051          167.972       NO       
     PART-1-1.81887      9.80238E-05          6.51556          167.821       NO       
     PART-1-1.81903       0.00277019          10.6027           160.22       NO       
     PART-1-1.81906       0.00258982           12.394          161.323       NO       
     PART-1-1.81907        0.0118813          18.6795          156.039       NO       
     PART-1-1.81924       0.00575625          16.9632          153.437       NO       
     PART-1-1.81928        0.0025737          15.3811          161.802       NO       
     PART-1-1.81936         0.014072          12.8349          154.174       NO       
     PART-1-1.81940       0.00233277          12.1394          161.436       NO       
     PART-1-1.81947       0.00161917          14.3854          160.077       NO       
     PART-1-1.81991      0.000155254          7.38065          166.847       NO       
     PART-1-1.81999      0.000339828          8.31054          162.691       NO       
     PART-1-1.82002      9.84373E-05           7.9333          169.103       NO       
     PART-1-1.82007      8.27219E-06          4.51846          172.468       NO       
     PART-1-1.82019       0.00295277          9.32747          162.445       NO       
     PART-1-1.82020      9.05845E-06          6.09501          174.204       NO       
     PART-1-1.82025      6.54218E-06          6.24812          173.543       NO       
     PART-1-1.82026      1.21426E-05          5.14066          170.704       NO       
     PART-1-1.82031       0.00811317          10.9567          157.881       NO       
     PART-1-1.82032        0.0174924           20.094          145.386       NO       
     PART-1-1.82035      0.000504831          11.8834           167.12       NO       
     PART-1-1.82066      0.000497748          8.37009          164.698       NO       
     PART-1-1.82071      0.000487939          12.1454          166.841       NO       
     PART-1-1.82075         0.023018          13.4397          160.208       NO       
     PART-1-1.82077      0.000869505          9.36479          160.114       NO       
     PART-1-1.82084      0.000202759          10.4494          169.051       NO       
     PART-1-1.82086      0.000207351          8.07721          163.349       NO       
     PART-1-1.82088      0.000514799          11.9533          166.866       NO       
     PART-1-1.82089       0.00106734          13.7554          161.518       NO       
     PART-1-1.82150      9.53363E-05           9.6333          170.125       NO       
     PART-1-1.82156        0.0114755          26.0046          152.715       NO       
     PART-1-1.82165      0.000662825          13.3467          165.868       NO       
     PART-1-1.82173       0.00197559          8.76119          162.334       NO       
     PART-1-1.82176       0.00420821          14.6531          156.151       NO       
     PART-1-1.82177       0.00826497          15.2276          154.914       NO       
     PART-1-1.82181        0.0115699          15.9499          156.023       NO       
     PART-1-1.82191      0.000524307          8.42704          164.347       NO       
     PART-1-1.82198       0.00362904          15.5801          161.807       NO       
     PART-1-1.82200      0.000290606           7.6513          163.863       NO       
     PART-1-1.82203       0.00198952            12.16          162.038       NO       
     PART-1-1.82205       0.00774611          11.1286          153.365       NO       
     PART-1-1.82206       0.00275005           9.1379          162.586       NO       
     PART-1-1.82207       0.00392063          11.6977          156.296       NO       
     PART-1-1.82218      0.000377004          16.3301          135.573       NO       
     PART-1-1.82225      0.000447355          10.4472          167.892       NO       
     PART-1-1.82228      2.58793E-05          7.36093          172.764       NO       
     PART-1-1.82252       0.00310255          14.1052          157.706       NO       
     PART-1-1.82329      9.64746E-06          6.33758          173.903       NO       
     PART-1-1.82331       0.00172091          14.4792          163.164       NO       
     PART-1-1.82332      0.000484179           11.623          164.788       NO       
     PART-1-1.82336       0.00276592          14.3711          162.311       NO       
     PART-1-1.82337       0.00576691           11.231          155.451       NO       
     PART-1-1.82338       0.00213147          9.75919           160.95       NO       
     PART-1-1.82350       0.00238752          16.1919          157.714       NO       
     PART-1-1.82351       6.7863E-05          9.17376          169.608       NO       
     PART-1-1.82353      5.71249E-05          8.66338           171.37       NO       
     PART-1-1.82354      1.42529E-05          5.03942          171.467       NO       
     PART-1-1.82355       0.00032179          9.36564          166.937       NO       
     PART-1-1.82367       0.00060534          12.0002          164.048       NO       
     PART-1-1.82370      0.000568019          12.5711          166.544       NO       
     PART-1-1.82380      1.32329E-05          3.43547          174.454       NO       
     PART-1-1.82381      1.35139E-05          5.84002           172.28       NO       
     PART-1-1.82383       0.00256516          14.5312          162.399       NO       
     PART-1-1.82385      0.000756561          8.49599          164.071       NO       
     PART-1-1.82388      0.000121094          6.89672          167.686       NO       
     PART-1-1.82389       0.00441974          13.0376          158.565       NO       
     PART-1-1.82428       0.00395313          16.2504          155.529       NO       
     PART-1-1.82490       0.00111106          21.1263          154.357       NO       
     PART-1-1.82492       0.00431294          11.4563          160.447       NO       
     PART-1-1.82494        0.0010068          22.6679          158.899       NO       
     PART-1-1.82560       0.00274808          29.7754          153.964       NO       
     PART-1-1.82561       0.00274008          26.9267          150.565       NO       
     PART-1-1.82562        0.0252432          9.40564           160.08       NO       
     PART-1-1.82575      0.000867952          19.7812          151.088       NO       
     PART-1-1.82600        0.0103273          20.5845          154.383       NO       
     PART-1-1.82601        0.0117279          18.4064          149.167       NO       
     PART-1-1.82842        0.0139662          25.7575           151.25       NO       
     PART-1-1.83184       0.00051303          9.55728          168.152       NO       
     PART-1-1.83185      0.000775832          8.39553          165.205       NO       
     PART-1-1.83186       0.00342709          14.7943          163.709       NO       
     PART-1-1.83194        0.0157581          23.0381          155.186       NO       
     PART-1-1.83226        0.0171313          13.1383          149.055       NO       
     PART-1-1.83284      3.49928E-07          1.31908          178.342       NO       
     PART-1-1.83285      0.000351663          6.42112          166.446       NO       
     PART-1-1.83286       0.00134241          13.5535          167.552       NO       
     PART-1-1.83288        0.0157235           6.1449          160.504       NO       
     PART-1-1.83289      1.71453E-06           1.6578          176.734       NO       
     PART-1-1.83291      0.000388864          11.9929          168.302       NO       
     PART-1-1.83303      5.66129E-06          3.03784          176.153       NO       
     PART-1-1.83304      0.000122335          5.12328          169.637       NO       
     PART-1-1.83305      0.000462172          10.3641          170.302       NO       
     PART-1-1.83306         0.118694          9.69821           132.21       NO       
     PART-1-1.83307        0.0548819          7.56647          149.916       NO       
     PART-1-1.83308        0.0364072          3.84561          172.672       NO       
     PART-1-1.83310      0.000485856          14.0485          167.359       NO       
     PART-1-1.83443        0.0155881          31.6954          141.961       NO       
     PART-1-1.83454       0.00724387          15.8033          159.728       NO       
     PART-1-1.83700        0.0178547          24.3898          152.579       NO       
     PART-1-1.83717      0.000153641          4.78343          169.389       NO       
     PART-1-1.83732        0.0165256          11.1066          160.402       NO       
     PART-1-1.83733        0.0129414          21.8912          146.648       NO       
     PART-1-1.83770      6.76654E-06           1.3782           176.56       NO       
     PART-1-1.83772      3.48619E-05         0.649725          178.435       NO       
     PART-1-1.83773        1.891E-05         0.654145          178.037       NO       
     PART-1-1.83843       0.00944555          12.1842          153.203       NO       
     PART-1-1.83862      1.32195E-26      1.36337E-05             180.       NO       
     PART-1-1.83864       0.00617575          38.1096          144.267       NO       
     PART-1-1.83946        0.0197005          13.6246          160.158       NO       
     PART-1-1.83952         0.126058          8.22985          160.583       NO       
     PART-1-1.83966        0.0139526          24.5404          151.331       NO       
     PART-1-1.83981      3.89134E-06           2.2152          170.285       NO       
     PART-1-1.83982      9.19801E-06          6.48929          171.952       NO       
     PART-1-1.83983      8.67377E-05          11.3829          170.848       NO       
     PART-1-1.83984       0.00354452          8.78966          154.258       NO       
     PART-1-1.83985       0.00774652          17.1141          151.118       NO       
     PART-1-1.83986       6.5359E-06          6.16794          167.604       NO       
     PART-1-1.83987        0.0112278          7.68756          159.192       NO       
     PART-1-1.83988      2.94159E-05          8.52121          172.161       NO       
     PART-1-1.84033       0.00437271          19.3483          157.329       NO       
     PART-1-1.84355       7.5607E-06          1.72045          176.703       NO       
     PART-1-1.84364      0.000963322          48.9329          161.294       NO       
     PART-1-1.84371       1.1812E-06          2.46587          175.111       NO       
     PART-1-1.84372      5.62213E-05          21.9851          164.427       NO       
     PART-1-1.84373      0.000630618          14.2212          155.175       NO       
     PART-1-1.84374      3.45114E-06          2.50749          176.468       NO       
     PART-1-1.84395        0.0134578            18.68          147.924       NO       
     PART-1-1.84409        0.0110762          10.4352          161.331       NO       
     PART-1-1.84411        0.0356098          9.95374          152.028       NO       
     PART-1-1.84414         0.018258          16.9353          151.604       NO       
  
  
 --------------------------------------------------------------------------------
 Elements with small volume
  
      Element       Adjusted nodes 
 ------------------ -------------- 
     PART-1-1.12510       NO       
     PART-1-1.12661       NO       
     PART-1-1.15612       NO       
     PART-1-1.16711       NO       
     PART-1-1.17450       NO       
     PART-1-1.28211       NO       
     PART-1-1.28795       NO       
     PART-1-1.29192       NO       
     PART-1-1.29203       NO       
     PART-1-1.30474       NO       
     PART-1-1.33712       NO       
     PART-1-1.33778       NO       
     PART-1-1.33831       NO       
     PART-1-1.33843       NO       
     PART-1-1.60546       NO       
     PART-1-1.62401       NO       
     PART-1-1.62408       NO       
     PART-1-1.62412       NO       
     PART-1-1.64172       NO       
     PART-1-1.64180       NO       
     PART-1-1.64298       NO       
     PART-1-1.64470       NO       
     PART-1-1.64576       NO       
     PART-1-1.65014       NO       
     PART-1-1.65018       NO       
     PART-1-1.65252       NO       
     PART-1-1.65253       NO       
     PART-1-1.65257       NO       
     PART-1-1.65296       NO       
     PART-1-1.65356       NO       
     PART-1-1.65358       NO       
     PART-1-1.65525       NO       
     PART-1-1.65592       NO       
     PART-1-1.65844       NO       
     PART-1-1.65873       NO       
     PART-1-1.66555       NO       
     PART-1-1.66559       NO       
     PART-1-1.66663       NO       
     PART-1-1.67025       NO       
     PART-1-1.68595       NO       
     PART-1-1.68633       NO       
     PART-1-1.68641       NO       
     PART-1-1.68646       NO       
     PART-1-1.69182       NO       
     PART-1-1.69188       NO       
     PART-1-1.71056       NO       
     PART-1-1.71067       NO       
     PART-1-1.71084       NO       
     PART-1-1.71887       NO       
     PART-1-1.73458       NO       
     PART-1-1.73464       NO       
     PART-1-1.73487       NO       
     PART-1-1.73494       NO       
     PART-1-1.73508       NO       
     PART-1-1.75729       NO       
     PART-1-1.75812       NO       
     PART-1-1.75814       NO       
     PART-1-1.80140       NO       
     PART-1-1.84352       NO       
     PART-1-1.84356       NO       
     PART-1-1.84363       NO       
  
  *Step, name=Step-1, nlgeom=NO, perturbation
  *output, field, variable=PRESELECT
  *Step, name=Step-1, nlgeom=NO, perturbation

 ***ERROR: NODE SET ASSEMBLY_BOTTOM_SET_PIN HAS NOT BEEN DEFINED

 ***ERROR: NODE SET ASSEMBLY_BOTTOM_SET_PIN HAS NOT BEEN DEFINED

 ***ERROR: NODE SET ASSEMBLY_TOP_SET_PIN HAS NOT BEEN DEFINED

 ***ERROR: NODE SET ASSEMBLY_TOP_SET_PIN HAS NOT BEEN DEFINED

 ***ERROR: NODE SET ASSEMBLY_TOP_SET_PIN HAS NOT BEEN DEFINED

 ***ERROR: NODE SET ASSEMBLY_TOP_SET_PIN HAS NOT BEEN DEFINED
  *Step, name=Step-1, nlgeom=NO, perturbation
  *buckle
  *boundary, op=NEW, loadcase=1
  *boundary, op=NEW, loadcase=2
  *boundary, op=NEW, loadcase=1
  *boundary, op=NEW, loadcase=2
  *dsload

 ***ERROR: THE SURFACE ASSEMBLY_TOP_SURFACE HAS NOT BEEN LOCATED
 LINE IMAGE: ASSEMBLY_TOP_SURFACE, P, 1.
  *output, field, variable=PRESELECT
  *endstep
  *Step, name=Step-1, nlgeom=NO, perturbation
  *buckle
  *buckle
  *boundary, op=NEW, loadcase=1

 ***ERROR: A BOUNDARY CONDITION HAS BEEN SPECIFIED ON NODE SET 
           ASSEMBLY_BOTTOM_SET_PIN BUT THIS NODE SET IS NOT ACTIVE IN THE MODEL
  *boundary, op=NEW, loadcase=2

 ***ERROR: A BOUNDARY CONDITION HAS BEEN SPECIFIED ON NODE SET 
           ASSEMBLY_BOTTOM_SET_PIN BUT THIS NODE SET IS NOT ACTIVE IN THE MODEL
  *boundary, op=NEW, loadcase=1

 ***ERROR: A BOUNDARY CONDITION HAS BEEN SPECIFIED ON NODE SET 
           ASSEMBLY_TOP_SET_PIN BUT THIS NODE SET IS NOT ACTIVE IN THE MODEL

 ***ERROR: A BOUNDARY CONDITION HAS BEEN SPECIFIED ON NODE SET 
           ASSEMBLY_TOP_SET_PIN BUT THIS NODE SET IS NOT ACTIVE IN THE MODEL
  *boundary, op=NEW, loadcase=2

 ***ERROR: A BOUNDARY CONDITION HAS BEEN SPECIFIED ON NODE SET 
           ASSEMBLY_TOP_SET_PIN BUT THIS NODE SET IS NOT ACTIVE IN THE MODEL

 ***ERROR: A BOUNDARY CONDITION HAS BEEN SPECIFIED ON NODE SET 
           ASSEMBLY_TOP_SET_PIN BUT THIS NODE SET IS NOT ACTIVE IN THE MODEL
  *endstep

 ***ERROR: NODE SET ASSEMBLY_BOTTOM_SET_PIN HAS NOT BEEN DEFINED

 ***ERROR: NODE SET ASSEMBLY_BOTTOM_SET_PIN HAS NOT BEEN DEFINED

 ***ERROR: NODE SET ASSEMBLY_TOP_SET_PIN HAS NOT BEEN DEFINED

 ***ERROR: NODE SET ASSEMBLY_TOP_SET_PIN HAS NOT BEEN DEFINED

 ***ERROR: NODE SET ASSEMBLY_TOP_SET_PIN HAS NOT BEEN DEFINED

 ***ERROR: NODE SET ASSEMBLY_TOP_SET_PIN HAS NOT BEEN DEFINED



                            P R O B L E M   S I Z E


          NUMBER OF ELEMENTS IS                                 84446
          NUMBER OF ELEMENTS DEFINED BY THE USER AND *TIE       84444
          NUMBER OF NODES IS                                    38347
          NUMBER OF NODES DEFINED BY THE USER                   38347
          TOTAL NUMBER OF VARIABLES IN THE MODEL               115047
          (DEGREES OF FREEDOM PLUS MAX NO. OF ANY LAGRANGE MULTIPLIER
           VARIABLES. INCLUDE *PRINT,SOLVE=YES TO GET THE ACTUAL NUMBER.)





          THE PROGRAM HAS DISCOVERED    41 FATAL ERRORS

               ** EXECUTION IS TERMINATED **

 ***ERROR: Failed to locate set "ASSEMBLY_TOP_SET_PIN".



                              END OF USER INPUT PROCESSING



     JOB TIME SUMMARY
       USER TIME (SEC)      =   3.7000    
       SYSTEM TIME (SEC)    =  0.90000    
       TOTAL CPU TIME (SEC) =   4.6000    
       WALLCLOCK TIME (SEC) =          5
