1

   Abaqus 3DEXPERIENCE R2019x                                  Date 01-May-2020   Time 23:56:19
   For use by TEXAS A_M UNIVERSITY SYSTEM under license from Dassault Systemes or its subsidiary.



                         The Abaqus Software is a product of:

                           Dassault Systemes SIMULIA Corp.
                           1301 Atwood Avenue, Suite 101W
                              Johnston, RI 02919, USA
 


                   The Abaqus Software is available only under license
                   from Dassault Systemes or its subsidiary and may be
                   used or reproduced only in accordance with the terms
                   of such license.
 
                          On machine AERO-MJ09CBE4 
                          you are authorized to run
                          Abaqus/Standard until 11-Jul-2021

                          Your site id is: 200000000002185 


 
                    For assistance or any other information you may
                    obtain contact information for your local office
                    from the world wide web at:

                      http://www.3ds.com/products/simulia/locations/

 
                * * * * * * * * * * * * * * * * * * * * * * * * * * * * * * 
                *                                                         * 
                *                   *****************                     * 
                *                   *  N O T I C E  *                     * 
                *                   *****************                     * 
                *                                                         * 
                *                                                         * 
                *               Abaqus 3DEXPERIENCE R2019x                * 
                *                                                         * 
                *          BUILD ID: 2018_09_24-13.41.51 157541           * 
                *                                                         * 
                *                                                         * 
                *  Please make sure you are using                         * 
                *  release 3DEXPERIENCE R2019x manuals                    * 
                *  plus the notes accompanying this release.              * 
                *                                                         * 
                *                                                         * 
                *                                                         * 
                *                                                         * 
                *                                                         * 
                *   This program may not be used for commercial purposes  * 
                *           without payment of a commercial fee.          * 
                *                                                         * 
                * * * * * * * * * * * * * * * * * * * * * * * * * * * * * * 


 



     PROCESSING PART, INSTANCE, AND ASSEMBLY INFORMATION
   *******************************************************


 ***ERROR: in keyword *RIGIDBODY, file "Buckling_job_0_3.inp", line 58329: 
           Unknown assembly set TOP_SET_PIN
 ***NOTE: DUE TO AN INPUT ERROR THE ANALYSIS PRE-PROCESSOR HAS BEEN UNABLE TO 
          INTERPRET SOME DATA.  SUBSEQUENT ERRORS MAY BE CAUSED BY THIS OMISSION

 ***ERROR: in keyword *RIGIDBODY, file "Buckling_job_0_3.inp", line 58331: 
           Unknown assembly set BOTTOM_SET_PIN

 ***ERROR: in keyword *BOUNDARY, file "Buckling_job_0_3.inp", line 58353: 
           Unknown assembly node set BOTTOM_SET_PIN

 ***ERROR: in keyword *BOUNDARY, file "Buckling_job_0_3.inp", line 58355: 
           Unknown assembly node set BOTTOM_SET_PIN

 ***ERROR: in keyword *BOUNDARY, file "Buckling_job_0_3.inp", line 58358: 
           Unknown assembly node set TOP_SET_PIN

 ***ERROR: in keyword *BOUNDARY, file "Buckling_job_0_3.inp", line 58358: 
           Unknown assembly node set TOP_SET_PIN

 ***ERROR: in keyword *BOUNDARY, file "Buckling_job_0_3.inp", line 58361: 
           Unknown assembly node set TOP_SET_PIN

 ***ERROR: in keyword *BOUNDARY, file "Buckling_job_0_3.inp", line 58361: 
           Unknown assembly node set TOP_SET_PIN

     END PROCESSING PART, INSTANCE, AND ASSEMBLY INFORMATION
   ***********************************************************




     OPTIONS BEING PROCESSED
   ***************************


  *Heading
  *Node
  *Element, type=C3D4
  *Nset, nset=ASSEMBLY_PART-1-1_FIBRE_SET3
  *Elset, elset=ASSEMBLY_PART-1-1_FIBRE_SET3
  *Node
  *Nset, nset=ASSEMBLY__PICKEDSET19
  *Nset, nset=ASSEMBLY__PICKEDSET21

 ***WARNING: BUCKLE OPTION IS NOT SUPPORTED FOR ELEMENT LOOP PARALLELIZATION. 
             IF YOU HAVE SPECIFIED ELEMENT LOOP PARALLELIZATION, IT WILL BE 
             TURNED OFF FOR THIS ANALYSIS.
 LINE IMAGE: *buckle
  *material, name=FIBRE_MATERIAL
  *elastic
  *material, name=MATRIX_MATERIAL
  *elastic
  *solidsection, elset=ASSEMBLY_PART-1-1_FIBRE_SET3, material=FIBRE_MATERIAL
  *solidsection, elset=ASSEMBLY_PART-1-1_FIBRE_SET3, material=FIBRE_MATERIAL
  *rigidbody, refnode=ASSEMBLY__PICKEDSET19, pinnset=ASSEMBLY_TOP_SET_PIN
  *rigidbody, refnode=ASSEMBLY__PICKEDSET21, pinnset=ASSEMBLY_BOTTOM_SET_PIN
  *rigidbody, refnode=ASSEMBLY__PICKEDSET19, pinnset=ASSEMBLY_TOP_SET_PIN
  *rigidbody, refnode=ASSEMBLY__PICKEDSET21, pinnset=ASSEMBLY_BOTTOM_SET_PIN
  *rigidbody, refnode=ASSEMBLY__PICKEDSET19, pinnset=ASSEMBLY_TOP_SET_PIN
  *rigidbody, refnode=ASSEMBLY__PICKEDSET21, pinnset=ASSEMBLY_BOTTOM_SET_PIN
  *rigidbody, refnode=ASSEMBLY__PICKEDSET19, pinnset=ASSEMBLY_TOP_SET_PIN

 ***ERROR: NODE SET ASSEMBLY_TOP_SET_PIN HAS NOT BEEN DEFINED
  *rigidbody, refnode=ASSEMBLY__PICKEDSET21, pinnset=ASSEMBLY_BOTTOM_SET_PIN

 ***ERROR: NODE SET ASSEMBLY_BOTTOM_SET_PIN HAS NOT BEEN DEFINED
  *rigidbody, refnode=ASSEMBLY__PICKEDSET19, pinnset=ASSEMBLY_TOP_SET_PIN

 ***ERROR: NODE SET ASSEMBLY_TOP_SET_PIN HAS NOT BEEN DEFINED

 ***ERROR: UNABLE TO LOCATE NODE SET ASSEMBLY_TOP_SET_PIN. THE NODE SET MUST 
           HAVE BEEN PREVIOUSLY DEFINED. NODES IN THIS NODE SET WILL NOT BE 
           PART OF RIGID BODY
 LINE IMAGE: *rigidbody, refnode=ASSEMBLY__PICKEDSET19, 
             pinnset=ASSEMBLY_TOP_SET_PIN
  *rigidbody, refnode=ASSEMBLY__PICKEDSET21, pinnset=ASSEMBLY_BOTTOM_SET_PIN

 ***ERROR: NODE SET ASSEMBLY_BOTTOM_SET_PIN HAS NOT BEEN DEFINED

 ***ERROR: UNABLE TO LOCATE NODE SET ASSEMBLY_BOTTOM_SET_PIN. THE NODE SET MUST 
           HAVE BEEN PREVIOUSLY DEFINED. NODES IN THIS NODE SET WILL NOT BE 
           PART OF RIGID BODY
 LINE IMAGE: *rigidbody, refnode=ASSEMBLY__PICKEDSET21, 
             pinnset=ASSEMBLY_BOTTOM_SET_PIN

 ***ERROR: SURFACE DEFINITION ASSEMBLY_TOP_SURFACE NOT FOUND.
  *rigidbody, refnode=ASSEMBLY__PICKEDSET19, pinnset=ASSEMBLY_TOP_SET_PIN
  *rigidbody, refnode=ASSEMBLY__PICKEDSET21, pinnset=ASSEMBLY_BOTTOM_SET_PIN
  *rigidbody, refnode=ASSEMBLY__PICKEDSET19, pinnset=ASSEMBLY_TOP_SET_PIN

 ***ERROR: NODE SET ASSEMBLY_TOP_SET_PIN HAS NOT BEEN DEFINED

 ***ERROR: UNABLE TO LOCATE NODE SET ASSEMBLY_TOP_SET_PIN. THE NODE SET MUST 
           HAVE BEEN PREVIOUSLY DEFINED. NODES IN THIS NODE SET WILL NOT BE 
           PART OF RIGID BODY
 LINE IMAGE: *rigidbody, refnode=ASSEMBLY__PICKEDSET19, 
             pinnset=ASSEMBLY_TOP_SET_PIN
  *rigidbody, refnode=ASSEMBLY__PICKEDSET21, pinnset=ASSEMBLY_BOTTOM_SET_PIN

 ***ERROR: NODE SET ASSEMBLY_BOTTOM_SET_PIN HAS NOT BEEN DEFINED

 ***ERROR: UNABLE TO LOCATE NODE SET ASSEMBLY_BOTTOM_SET_PIN. THE NODE SET MUST 
           HAVE BEEN PREVIOUSLY DEFINED. NODES IN THIS NODE SET WILL NOT BE 
           PART OF RIGID BODY
 LINE IMAGE: *rigidbody, refnode=ASSEMBLY__PICKEDSET21, 
             pinnset=ASSEMBLY_BOTTOM_SET_PIN
  *boundary, op=NEW, loadcase=1
  *boundary, op=NEW, loadcase=2
  *boundary, op=NEW, loadcase=1
  *boundary, op=NEW, loadcase=2
  *boundary, op=NEW, loadcase=1
  *boundary, op=NEW, loadcase=2
  *boundary, op=NEW, loadcase=1
  *boundary, op=NEW, loadcase=2
  *rigidbody, refnode=ASSEMBLY__PICKEDSET19, pinnset=ASSEMBLY_TOP_SET_PIN
  *rigidbody, refnode=ASSEMBLY__PICKEDSET21, pinnset=ASSEMBLY_BOTTOM_SET_PIN
  *output, field, variable=PRESELECT
  *output, field, variable=PRESELECT
  *output, field, variable=PRESELECT

 ***ERROR: NODE SET ASSEMBLY_TOP_SET_PIN HAS NOT BEEN DEFINED

 ***ERROR: NODE SET ASSEMBLY_BOTTOM_SET_PIN HAS NOT BEEN DEFINED
  
                               E L E M E N T   Q U A L I T Y  C H E C K S        
  
  
 ***NOTES: DISTORTED ISOPARAMETRIC ELEMENTS: ANGLE BETWEEN ISOPARAMETRIC LINES 
           IS LESS THAN 45 DEGREES OR GREATER THAN 135 DEGREES.
  
           TETRAHEDRAL QUALITY MEASURE: VOLUME OF TETRAHEDRON DIVIDED BY THE 
           VOLUME OF EQUILATERAL TETRAHEDRON WITH SAME CIRCUMSPHERE RADIUS; 
           0 FOR DEGENERATE TETRAHEDRON AND 1 FOR EQUILATERIAL TETRAHEDRON. IT 
           IS RECOMMENDED THAT THE TETRAHEDRAL QUALITY MEASURE BE GREATER THAN 
           0.02, THE MIN INTERIOR (DIHEDRAL) ANGLE BE GREATER THAN 10 DEGREES, 
           AND THE MAX INTERIOR (DIHEDRAL) ANGLE BE LESS THAN 160 DEGREES. 
  
           MODIFIED TETRAHEDRAL QUALITY MEASURE: ANGLES BETWEEN THE TWO LINE 
           SEGMENTS ON EACH EDGE; THE EDGES OF MODIFIED TETRAHEDRAL SHOULD BE 
           AS STRAIGHT AS POSSIBLE. IT IS RECOMMENDED THAT THE ANGLE BETWEEN 
           THE TWO LINE SEGMENTS ON EACH EDGE IS BETWEEN 160 AND 180 DEGREES. 
  
           TRIANGULAR QUALITY MEASURE: AREA OF TRIANGLE DIVIDED BY THE AREA OF 
           EQUILATERAL TRIANGLE WITH SAME CIRCUMCIRCLE RADIUS; 0 FOR DEGENERATE 
           TRIANGLE AND 1 FOR EQUILATERAL TRIANGLE. IT IS RECOMMENDED THAT THE
           TRIANGULAR QUALITY MEASURE BE GREATER THAN 0.01, THE MIN INTERIOR 
           ANGLE BE GREATER THAN 10 DEGREES, AND THE MAX INTERIOR ANGLE BE LESS 
           THAN 160 DEGREES. 
  
           NODAL ADJUSTMENTS ARISING FROM CONTACT INTERACTIONS AND/OR TIE 
           CONSTRAINTS CAN CAUSE SEVERE ELEMENT DISTORTION. IT MAY BE NECESSARY 
           TO REMESH IN ORDER TO REDUCE THE AMOUNT OF ADJUSTMENT. 

 ***WARNING: 1856 elements are distorted. Either the isoparametric angles are 
             out of the suggested limits or the triangular or tetrahedral 
             quality measure is bad. The elements have been identified in 
             element set WarnElemDistorted.

 ***ERROR: The volume of 1 elements is zero, small, or negative. Check 
           coordinates or node numbering, or modify the mesh seed. In the case 
           of a tetrahedron this error may indicate that all nodes are located 
           very nearly in a plane. The elements have been identified in element 
           set ErrElemVolSmallNegZero.
  
 --------------------------------------------------------------------------------
 Distorted tetrahedral elements
  
      Element       Quality measure     Min angle        Max angle     Adjusted nodes 
 ------------------ ---------------- ---------------- ---------------- -------------- 
         PART-1-1.2       0.00849701          20.5228          158.655       NO       
        PART-1-1.33       0.00827658           20.147          155.952       NO       
        PART-1-1.34        0.0128032          23.9029          153.578       NO       
        PART-1-1.73       0.00672444          15.1287          155.223       NO       
        PART-1-1.84        0.0178882          10.8016          158.197       NO       
       PART-1-1.101        0.0189352           19.344          146.472       NO       
       PART-1-1.112      0.000518354          13.7958          163.273       NO       
       PART-1-1.113       0.00616263           14.248          154.224       NO       
       PART-1-1.119       0.00690877          15.8439           154.81       NO       
       PART-1-1.161        0.0147691          25.2086          152.349       NO       
       PART-1-1.173         0.016124          23.1768          151.838       NO       
       PART-1-1.174        0.0109419          20.7772          147.997       NO       
       PART-1-1.198       0.00354193          8.51578          164.142       NO       
       PART-1-1.207      0.000339452          9.57106          163.385       NO       
       PART-1-1.210       0.00785805          13.7341          154.758       NO       
       PART-1-1.211        0.0963952          9.22806          165.032       NO       
       PART-1-1.223      0.000530755          12.1912           163.93       NO       
       PART-1-1.263       0.00679449           18.892          154.218       NO       
       PART-1-1.290       0.00127791          14.6705          160.295       NO       
       PART-1-1.292       0.00100974          11.2379          157.082       NO       
       PART-1-1.324       0.00755734          19.0588          153.575       NO       
       PART-1-1.342       0.00730568          13.5646          155.066       NO       
       PART-1-1.355      0.000597621          14.0963          162.795       NO       
       PART-1-1.398        0.0057717          8.94286          166.168       NO       
       PART-1-1.439      0.000252107          10.6602          166.007       NO       
       PART-1-1.442       0.00133944           12.536          161.128       NO       
       PART-1-1.443        0.0133218          16.0764           147.51       NO       
       PART-1-1.471       0.00789307          14.1156          154.328       NO       
       PART-1-1.472      0.000548298          13.1459          165.884       NO       
       PART-1-1.475       0.00204456          17.1672          162.077       NO       
       PART-1-1.532        0.0251595          8.50819          161.215       NO       
       PART-1-1.570      0.000202492          13.8589          166.635       NO       
       PART-1-1.584       0.00241553          18.5606          160.424       NO       
       PART-1-1.615        0.0114871          23.5823          154.916       NO       
       PART-1-1.628      0.000537858          12.3365          167.525       NO       
       PART-1-1.654       0.00165281          14.0899           160.59       NO       
       PART-1-1.667      0.000619576          12.9213          164.483       NO       
       PART-1-1.668      0.000839123          14.5088          165.078       NO       
       PART-1-1.687       0.00833997          13.6002          152.373       NO       
       PART-1-1.701        0.0144905          23.8421          153.877       NO       
       PART-1-1.724        0.0046164          15.1975          155.712       NO       
       PART-1-1.727         0.108132          7.06654           160.91       NO       
       PART-1-1.749      0.000374183          12.8479          164.786       NO       
       PART-1-1.759       0.00934223          14.6597          152.838       NO       
       PART-1-1.764        0.0118117          19.1047          148.453       NO       
       PART-1-1.765       0.00755958          19.3821          156.728       NO       
       PART-1-1.817        0.0115486          23.1412          154.608       NO       
       PART-1-1.819       0.00161481          16.2141          162.204       NO       
       PART-1-1.844        0.0178832          21.2823           144.55       NO       
       PART-1-1.846       0.00183876          12.3406           160.26       NO       
       PART-1-1.902         0.017662          23.5562          147.302       NO       
       PART-1-1.928        0.0105907          20.0905          149.216       NO       
       PART-1-1.947        0.0133888          20.8613          146.719       NO       
       PART-1-1.950         0.076553          8.98799          158.705       NO       
       PART-1-1.955       0.00217042          15.4538          162.262       NO       
       PART-1-1.958       0.00900006           21.996          156.003       NO       
       PART-1-1.979       0.00737921           17.021          156.054       NO       
      PART-1-1.1020      0.000458729          11.5673          164.622       NO       
      PART-1-1.1030        0.0155441          16.4173          152.668       NO       
      PART-1-1.1047        0.0184777          23.4258          151.088       NO       
      PART-1-1.1051        0.0151664          15.8806           147.76       NO       
      PART-1-1.1068       0.00697462          19.3075          157.091       NO       
      PART-1-1.1096       0.00568083          15.2317          156.255       NO       
      PART-1-1.1097        0.0164852          21.7537          144.806       NO       
      PART-1-1.1108       0.00793537           17.232          154.685       NO       
      PART-1-1.1117       0.00618525          16.3498          157.039       NO       
      PART-1-1.1137      8.49359E-05          9.03838            168.4       NO       
      PART-1-1.1138        0.0062294          17.0912          155.957       NO       
      PART-1-1.1142       0.00604894          19.1589          154.399       NO       
      PART-1-1.1154        0.0188799          21.2867          144.199       NO       
      PART-1-1.1160       0.00700752          20.0851          153.376       NO       
      PART-1-1.1193       0.00109302          15.1054           164.27       NO       
      PART-1-1.1206        0.0110936          12.0547          148.967       NO       
      PART-1-1.1211         0.076547          8.98799          158.705       NO       
      PART-1-1.1221       0.00156116          12.5819          160.234       NO       
      PART-1-1.1222       0.00732415          18.5043          154.136       NO       
      PART-1-1.1227       0.00145075          10.9449          158.347       NO       
      PART-1-1.1236        0.0109286          18.8997          152.875       NO       
      PART-1-1.1248        0.0153501          15.0566          150.122       NO       
      PART-1-1.1250      3.37933E-05          6.93096          169.943       NO       
      PART-1-1.1252       0.00350163          18.3678          159.108       NO       
      PART-1-1.1286        0.0115975          19.7974          148.095       NO       
      PART-1-1.1289       0.00334711          13.0927          156.302       NO       
      PART-1-1.1290       0.00336127          18.1865          159.453       NO       
      PART-1-1.1304        0.0175826          23.4101          143.965       NO       
      PART-1-1.1318        0.0073866          14.5313          153.608       NO       
      PART-1-1.1369        0.0160986          19.3328          153.107       NO       
      PART-1-1.1370        0.0145148          18.7493          151.114       NO       
      PART-1-1.1452        0.0126922          16.2902          153.997       NO       
      PART-1-1.1455       0.00111806          10.2427          159.533       NO       
      PART-1-1.1457       0.00712984          20.8559          155.811       NO       
      PART-1-1.1458       0.00597325          19.2738           152.04       NO       
      PART-1-1.1465        0.0765472          8.98861          158.704       NO       
      PART-1-1.1474       0.00684727          20.0877          153.532       NO       
      PART-1-1.1495       0.00945639          19.1454          155.705       NO       
      PART-1-1.1577       0.00114727          15.2784          164.058       NO       
      PART-1-1.1626        0.0014274          15.8267          163.358       NO       
      PART-1-1.1627        0.0161391          16.6416          152.659       NO       
      PART-1-1.1628      0.000782932          10.9962          163.259       NO       
      PART-1-1.1629       0.00115178          15.7042          162.909       NO       
      PART-1-1.1635      0.000146275          9.70018          167.008       NO       
      PART-1-1.1659        0.0119138          20.7282          147.456       NO       
      PART-1-1.1689      0.000900986           15.062           163.74       NO       
      PART-1-1.1713        0.0141598          15.5372          148.595       NO       
      PART-1-1.1721       0.00793068          20.6771          155.585       NO       
      PART-1-1.1722        0.0150127          15.7491          147.386       NO       
      PART-1-1.1735      0.000604308          13.2024          164.333       NO       
      PART-1-1.1745       0.00104992          10.8905          159.158       NO       
      PART-1-1.1750       0.00717187           20.289          153.107       NO       
      PART-1-1.1753       0.00793587          20.9164          155.408       NO       
      PART-1-1.1791      0.000639588          13.9702          165.157       NO       
      PART-1-1.1792      0.000892026          14.0776          163.244       NO       
      PART-1-1.1794        0.0107906          11.7881          148.994       NO       
      PART-1-1.1807        0.0177784          10.7813          158.238       NO       
      PART-1-1.1815       0.00888205          17.9607          153.562       NO       
      PART-1-1.1835       0.00249524          18.5761          160.356       NO       
      PART-1-1.1845       0.00732599          16.9739          155.029       NO       
      PART-1-1.1881       0.00747775          19.2523          156.841       NO       
      PART-1-1.1896       0.00236305          12.9197          154.053       NO       
      PART-1-1.1982       0.00908551          20.8679          155.006       NO       
      PART-1-1.1997      9.25807E-06          6.15379          173.529       NO       
      PART-1-1.2002        0.0084424          14.9235          152.966       NO       
      PART-1-1.2004         0.015649          18.3763           151.48       NO       
      PART-1-1.2012        0.0174475          19.0703          150.225       NO       
      PART-1-1.2013       0.00892264          16.5128          153.505       NO       
      PART-1-1.2019       0.00752948          18.5436          153.889       NO       
      PART-1-1.2045       0.00609688          16.3179          156.324       NO       
      PART-1-1.2053       0.00332174          12.6282          152.625       NO       
      PART-1-1.2102        0.0149253          22.9197          152.307       NO       
      PART-1-1.2109         0.001738          15.9396          158.748       NO       
      PART-1-1.2110       0.00386323          17.3222          157.228       NO       
      PART-1-1.2113       0.00476566          13.6131          151.755       NO       
      PART-1-1.2147       0.00535476          18.5324          158.085       NO       
      PART-1-1.2177       0.00235032          15.7081          157.782       NO       
      PART-1-1.2178       0.00200747          16.1449          162.015       NO       
      PART-1-1.2181        0.0130557          22.9655           154.57       NO       
      PART-1-1.2185         0.012683          23.4647          154.037       NO       
      PART-1-1.2190       0.00146074          12.1795          155.216       NO       
      PART-1-1.2191      0.000589619          10.7398          163.443       NO       
      PART-1-1.2203       0.00190211          15.0382          162.766       NO       
      PART-1-1.2204        0.0196931          24.2339          150.188       NO       
      PART-1-1.2219         0.014526          15.7907           147.64       NO       
      PART-1-1.2239       0.00279217          15.2303          158.805       NO       
      PART-1-1.2242       0.00151224          10.9686          160.063       NO       
      PART-1-1.2261         0.015859          15.4111           149.59       NO       
      PART-1-1.2263        0.0143684          15.2837          148.911       NO       
      PART-1-1.2282      9.48054E-05          10.7484          168.072       NO       
      PART-1-1.2283      0.000105397          10.4543          169.469       NO       
      PART-1-1.2306       0.00689159          14.5621          153.414       NO       
      PART-1-1.2312       0.00164186            16.18          162.275       NO       
      PART-1-1.2331        0.0075543          17.5276          151.863       NO       
      PART-1-1.2335       0.00664792          12.8237          154.891       NO       
      PART-1-1.2361         0.002653          14.8582          158.572       NO       
      PART-1-1.2398        0.0104899          21.5896          153.846       NO       
      PART-1-1.2401       0.00283754          16.8552          156.546       NO       
      PART-1-1.2402        0.0034346          12.9059          154.129       NO       
      PART-1-1.2427       0.00750964          19.6501          150.684       NO       
      PART-1-1.2451      0.000936584          14.2982          162.995       NO       
      PART-1-1.2457       0.00906938          14.3404          152.639       NO       
      PART-1-1.2465       0.00222169          15.5338          158.057       NO       
      PART-1-1.2514        0.0178935          10.8026          158.195       NO       
      PART-1-1.2538        0.0174207          23.8946          153.373       NO       
      PART-1-1.2568       0.00443363          11.8165          162.008       NO       
      PART-1-1.2577       0.00820819          14.1192          160.093       NO       
      PART-1-1.2602       0.00116302          12.9896           161.54       NO       
      PART-1-1.2606       0.00602949          15.7529          155.492       NO       
      PART-1-1.2636       0.00766731           20.103          156.089       NO       
      PART-1-1.2710        0.0192858          23.1555          150.527       NO       
      PART-1-1.2721         0.003259          15.5326          156.571       NO       
      PART-1-1.2722       0.00187411          15.1894          162.818       NO       
      PART-1-1.2729        0.0143709          18.7672          151.828       NO       
      PART-1-1.2776       0.00662567          19.2423          157.078       NO       
      PART-1-1.2777        0.0017939          13.1868          159.757       NO       
      PART-1-1.2785       0.00195945          16.1686          159.888       NO       
      PART-1-1.2798        0.0142161          24.4499          153.074       NO       
      PART-1-1.2805       0.00151697          15.3114          163.042       NO       
      PART-1-1.2810       0.00371859          13.0655          154.265       NO       
      PART-1-1.2812       0.00535778          20.1697          157.752       NO       
      PART-1-1.2849       0.00260834          16.4103          157.079       NO       
      PART-1-1.2863       0.00807761          14.8057          152.857       NO       
      PART-1-1.2893       0.00781964          20.3552          155.848       NO       
      PART-1-1.2895       0.00921915          19.5642          149.557       NO       
      PART-1-1.2897       0.00777785          14.1711          153.881       NO       
      PART-1-1.2925        0.0136026          15.3055          148.672       NO       
      PART-1-1.2948       0.00367436          13.4642          153.216       NO       
      PART-1-1.2957       0.00463448          16.2593          157.225       NO       
      PART-1-1.2985       0.00692407           19.498          156.697       NO       
      PART-1-1.3054       0.00752049          18.6118          153.923       NO       
      PART-1-1.3060        0.0032933          14.8729          156.585       NO       
      PART-1-1.3105       0.00101077          15.3178          164.312       NO       
      PART-1-1.3118       0.00744329          20.0011          153.147       NO       
      PART-1-1.3122       0.00533075          12.3815          161.261       NO       
      PART-1-1.3190       0.00403345          12.9001          160.456       NO       
      PART-1-1.3240         0.013231          23.6788          153.584       NO       
      PART-1-1.3276       0.00318794          18.5159          160.453       NO       
      PART-1-1.3297       0.00766208          19.4799          153.299       NO       
      PART-1-1.3302       0.00151107           15.995          159.193       NO       
      PART-1-1.3355        0.0201966          12.7703          160.121       NO       
      PART-1-1.3376        0.0101159          17.7257           153.09       NO       
      PART-1-1.3377       0.00165036          12.9334          159.991       NO       
      PART-1-1.3435       0.00183728          13.5101          160.487       NO       
      PART-1-1.3537       0.00752841          18.8631          153.695       NO       
      PART-1-1.3542       0.00549703          16.8215           156.12       NO       
      PART-1-1.3555        0.0188437          16.1794          145.028       NO       
      PART-1-1.3571       0.00768004          19.7081          153.178       NO       
      PART-1-1.3573        0.0146901          20.4865          146.394       NO       
      PART-1-1.3618        0.0177957          22.9071          147.461       NO       
      PART-1-1.3697       0.00636013          17.0566          155.861       NO       
      PART-1-1.3898       0.00457077          14.8191          156.933       NO       
      PART-1-1.3952      0.000144203          11.9279          167.153       NO       
      PART-1-1.3978      0.000450262          13.5646           163.82       NO       
      PART-1-1.3981       0.00669266          14.7294          155.751       NO       
      PART-1-1.4028        0.0140574          24.7144          152.578       NO       
      PART-1-1.4034        0.0158612          23.5791          151.713       NO       
      PART-1-1.4064         0.019444          15.7326          148.977       NO       
      PART-1-1.4066        0.0164962          24.0514           153.22       NO       
      PART-1-1.4085        0.0076132          19.4136          156.632       NO       
      PART-1-1.4098       0.00823065          21.1974           155.28       NO       
      PART-1-1.4105        0.0083529          14.6015          153.427       NO       
      PART-1-1.4106        0.0138964          16.2974          153.467       NO       
      PART-1-1.4178        0.0178624          23.6204          147.046       NO       
      PART-1-1.4226       0.00718417          13.0259          155.055       NO       
      PART-1-1.4233        0.0179368          25.4844          151.692       NO       
      PART-1-1.4289       0.00513064          12.9209          156.429       NO       
      PART-1-1.4324       0.00360953          18.9454          159.986       NO       
      PART-1-1.4346        0.0145802          24.7959          152.493       NO       
      PART-1-1.4349       0.00698381          16.3391           154.42       NO       
      PART-1-1.4365       0.00891405          19.1179          152.779       NO       
      PART-1-1.4378        0.0184792          17.2528          150.203       NO       
      PART-1-1.4408       0.00755593          14.5965           153.81       NO       
      PART-1-1.4415        0.0178118          22.7496          151.589       NO       
      PART-1-1.4459        0.0148088          24.4795          152.831       NO       
      PART-1-1.4466        0.0188823          14.3295           151.58       NO       
      PART-1-1.4470         0.012775          23.0715          154.421       NO       
      PART-1-1.4471         0.017727          15.0187          149.974       NO       
      PART-1-1.4474       0.00569434           14.526           156.42       NO       
      PART-1-1.4501         0.013872          23.1021           154.22       NO       
      PART-1-1.4504       0.00597118          14.3348           156.62       NO       
      PART-1-1.4515       0.00722679          19.5262          153.474       NO       
      PART-1-1.4518       0.00759075          19.1863          153.404       NO       
      PART-1-1.4564      0.000940763          10.9684          158.762       NO       
      PART-1-1.4566      0.000452725          10.6061          164.209       NO       
      PART-1-1.4570       0.00147361          15.3866          163.046       NO       
      PART-1-1.4580      0.000606912          11.7732          164.014       NO       
      PART-1-1.4581       0.00556626          12.8117          153.727       NO       
      PART-1-1.4582       0.00550579          15.1107          156.245       NO       
      PART-1-1.4588       0.00235665          12.8732          159.947       NO       
      PART-1-1.4614       0.00834281          20.1006          155.814       NO       
      PART-1-1.4622       0.00829554          13.8286          154.471       NO       
      PART-1-1.4647       0.00287914          18.4827          160.625       NO       
      PART-1-1.4648      0.000878388          14.6389           161.49       NO       
      PART-1-1.4652        0.0149393          15.8008          147.836       NO       
      PART-1-1.4654       0.00125727          15.8169          163.147       NO       
      PART-1-1.4680       0.00361011           13.937          158.116       NO       
      PART-1-1.4683      0.000145088          8.46946          165.493       NO       
      PART-1-1.4687        0.0107649          19.6192          151.686       NO       
      PART-1-1.4692      8.07151E-05           10.113          168.518       NO       
      PART-1-1.4827       0.00296416          18.4604          160.166       NO       
      PART-1-1.4833       0.00419712          18.9576          158.454       NO       
      PART-1-1.4940        0.0127274          24.0699          153.269       NO       
      PART-1-1.4982       0.00179884          16.2215          160.082       NO       
      PART-1-1.4991        0.0178367          19.0023          150.512       NO       
      PART-1-1.5011        0.0069522          17.6019          154.748       NO       
      PART-1-1.5061       0.00835158          16.3742           153.65       NO       
      PART-1-1.5066        0.0271066          9.22773          159.849       NO       
      PART-1-1.5069      0.000118789          10.4293          168.726       NO       
      PART-1-1.5070      0.000789352          15.1026           164.39       NO       
      PART-1-1.5072       0.00169795          16.1767          162.096       NO       
      PART-1-1.5103        0.0199013          22.4068          147.031       NO       
      PART-1-1.5123       0.00167994          15.4954          158.916       NO       
      PART-1-1.5128        0.0182782          22.9731          147.035       NO       
      PART-1-1.5144        0.0180053          16.5599          149.705       NO       
      PART-1-1.5153       0.00770901          13.2445          155.128       NO       
      PART-1-1.5213        0.0185326          22.0923          147.647       NO       
      PART-1-1.5233       0.00815703          16.9755          153.029       NO       
      PART-1-1.5237        0.0120429          18.5712          151.168       NO       
      PART-1-1.5244       0.00723803           16.761          155.733       NO       
      PART-1-1.5250       0.00693019          13.1768          153.303       NO       
      PART-1-1.5261       0.00707629          14.5068          153.647       NO       
      PART-1-1.5283       0.00837727          21.6649          151.718       NO       
      PART-1-1.5296       0.00819509           19.913            152.7       NO       
      PART-1-1.5353       0.00340629          18.4918           159.03       NO       
      PART-1-1.5358       0.00390915          13.5539          151.777       NO       
      PART-1-1.5361        0.0171875          28.4799          145.019       NO       
      PART-1-1.5370       0.00347557          17.7392           158.98       NO       
      PART-1-1.5384        0.0017986          16.3046          158.407       NO       
      PART-1-1.5392        0.0171591           15.424          148.797       NO       
      PART-1-1.5413       0.00840079          12.8697          157.492       NO       
      PART-1-1.5422        0.0122921          18.4261           152.99       NO       
      PART-1-1.5432        0.0125251          22.4633          155.173       NO       
      PART-1-1.5450       0.00604493          13.4476          152.389       NO       
      PART-1-1.5461       0.00599248          13.4825          152.685       NO       
      PART-1-1.5502        0.0074639          19.6631          150.628       NO       
      PART-1-1.5511         0.010541          19.5918          151.827       NO       
      PART-1-1.5539        0.0143302           19.619          150.374       NO       
      PART-1-1.5569      0.000426258            10.28          164.597       NO       
      PART-1-1.5662         0.015958          15.9087          150.764       NO       
      PART-1-1.5690       0.00293374          12.4322          155.043       NO       
      PART-1-1.5781        0.0166945          24.1524          153.052       NO       
      PART-1-1.5792       0.00922776          19.3438          152.565       NO       
      PART-1-1.5797       0.00671243          14.7632          155.441       NO       
      PART-1-1.5800        0.0183349          14.5761          150.443       NO       
      PART-1-1.5851       0.00961932          17.7692           150.45       NO       
      PART-1-1.5870       0.00773257          19.6155          150.673       NO       
      PART-1-1.5873      0.000753689          14.6881          164.887       NO       
      PART-1-1.5876       0.00309113          16.1744          158.829       NO       
      PART-1-1.5878       0.00552865          9.11725          159.889       NO       
      PART-1-1.5899        0.0276146          9.68844          160.068       NO       
      PART-1-1.5937        0.0144035          16.3149          152.956       NO       
      PART-1-1.5977        0.0141496          24.1369           147.81       NO       
      PART-1-1.5992       0.00262581           18.526           160.33       NO       
      PART-1-1.6002       0.00141535          13.2445           160.29       NO       
      PART-1-1.6015        0.0117189          20.2734          147.869       NO       
      PART-1-1.6053       0.00106331          12.9956          161.673       NO       
      PART-1-1.6058        0.0091131          21.1456           155.12       NO       
      PART-1-1.6059       0.00423007          13.9679           157.09       NO       
      PART-1-1.6070      0.000571001          12.9597          164.717       NO       
      PART-1-1.6075       0.00712945          19.9799           153.33       NO       
      PART-1-1.6092        0.0113282          19.1735          148.649       NO       
      PART-1-1.6094       0.00680124          19.7275           153.71       NO       
      PART-1-1.6097       0.00926632           17.203          153.613       NO       
      PART-1-1.6108       0.00763596          13.2459          155.092       NO       
      PART-1-1.6135       5.6843E-05          5.17012          170.014       NO       
      PART-1-1.6199       0.00137117          15.5237          161.351       NO       
      PART-1-1.6217       0.00464813          9.96709          160.165       NO       
      PART-1-1.6244       0.00190859          24.0218           162.73       NO       
      PART-1-1.6279        0.0152313          14.5233          156.635       NO       
      PART-1-1.6292        0.0018441          19.9494          161.149       NO       
      PART-1-1.6294       0.00756814          17.0867          154.894       NO       
      PART-1-1.6320        0.0148186          22.4363           152.42       NO       
      PART-1-1.6324        0.0152959           14.536          156.606       NO       
      PART-1-1.6329      0.000272039          12.1228          167.851       NO       
      PART-1-1.6335        0.0105711          17.4047          153.699       NO       
      PART-1-1.6360       0.00175917          11.1046          160.102       NO       
      PART-1-1.6361       0.00716332          13.4613          152.332       NO       
      PART-1-1.6362       0.00269043          13.0747          159.367       NO       
      PART-1-1.6371        0.0150023          13.9503           151.36       NO       
      PART-1-1.6388       0.00994423          18.0657          154.074       NO       
      PART-1-1.6389        0.0192236          21.5951          147.773       NO       
      PART-1-1.6394        0.0017919          11.3927          157.037       NO       
      PART-1-1.6424        0.0159394          23.9002          153.516       NO       
      PART-1-1.6434       0.00735424           18.952          153.826       NO       
      PART-1-1.6499        0.0136717          22.4648          152.603       NO       
      PART-1-1.6518        0.0118756          23.2612          154.178       NO       
      PART-1-1.6520        0.0111062          18.3859          151.167       NO       
      PART-1-1.6531         0.014796          14.2527          156.789       NO       
      PART-1-1.6555       0.00156956          15.7078          160.885       NO       
      PART-1-1.6563        0.0271095          9.22799          159.848       NO       
      PART-1-1.6568        0.0178485          13.7526          144.662       NO       
      PART-1-1.6581       0.00173393          15.2976          160.795       NO       
      PART-1-1.6582        0.0017618          11.8711          158.708       NO       
      PART-1-1.6584       0.00759702          21.2752          156.667       NO       
      PART-1-1.6618       0.00227437          10.1037          161.745       NO       
      PART-1-1.6620       0.00393223            14.05          150.512       NO       
      PART-1-1.6622       0.00560457          22.1191          156.346       NO       
      PART-1-1.6623       0.00167826          12.4551          160.323       NO       
      PART-1-1.6629       0.00771894          20.0023          154.595       NO       
      PART-1-1.6645        0.0163266          15.0003          156.279       NO       
      PART-1-1.6656         0.097825          9.31399          163.898       NO       
      PART-1-1.6671        0.0148786          20.4746          146.296       NO       
      PART-1-1.6672       0.00125328          13.4068          162.261       NO       
      PART-1-1.6679       0.00960849          22.4957          155.165       NO       
      PART-1-1.6681       0.00991525          17.2691          153.796       NO       
      PART-1-1.6693       0.00417709          13.5518          155.295       NO       
      PART-1-1.6694        0.0115125          23.0451          154.522       NO       
      PART-1-1.6696       0.00461435          13.8325          152.479       NO       
      PART-1-1.6722       0.00767148          19.5956          156.525       NO       
      PART-1-1.6741        0.0156065          9.37714          159.065       NO       
      PART-1-1.6745      0.000797606          14.0437          163.522       NO       
      PART-1-1.6755       0.00061262          10.5353          163.911       NO       
      PART-1-1.6763       0.00791203          14.9221          155.281       NO       
      PART-1-1.6764      0.000853896          14.8334          163.953       NO       
      PART-1-1.6767      0.000383031          11.2228           165.17       NO       
      PART-1-1.6815       0.00561941          14.7631          154.621       NO       
      PART-1-1.6820         0.006776          34.3008          153.937       NO       
      PART-1-1.6897        0.0144336          15.9134          147.169       NO       
      PART-1-1.6907        0.0083312          18.9244          153.225       NO       
      PART-1-1.6910        0.0132674          20.4312          147.078       NO       
      PART-1-1.6928        0.0141694          15.6209          147.627       NO       
      PART-1-1.6930          0.01054          20.0393          148.662       NO       
      PART-1-1.6949      7.73581E-05          8.83874          168.635       NO       
      PART-1-1.6952         0.016898          15.7836          148.403       NO       
      PART-1-1.7000       0.00902645          17.7712           154.86       NO       
      PART-1-1.7004        0.0108879          18.8959          149.053       NO       
      PART-1-1.7005       0.00747764          19.4829          156.728       NO       
      PART-1-1.7024      0.000812815          11.3129          162.873       NO       
      PART-1-1.7038        0.0183384          15.3915          149.703       NO       
      PART-1-1.7091        0.0127035          20.9962          150.088       NO       
      PART-1-1.7104       0.00691314          15.8248          154.687       NO       
      PART-1-1.7105        0.0012352          15.4425           163.71       NO       
      PART-1-1.7134      0.000829192          10.0916          160.498       NO       
      PART-1-1.7135       0.00752566          18.5683          153.915       NO       
      PART-1-1.7173        0.0164521          21.0751          145.249       NO       
      PART-1-1.7189       0.00997744          21.0154          151.225       NO       
      PART-1-1.7221       0.00863698          13.2515          152.754       NO       
      PART-1-1.7224       0.00226116          14.7476          159.681       NO       
      PART-1-1.7270        0.0296085          9.94341          164.118       NO       
      PART-1-1.7395       0.00502275          16.1563          157.251       NO       
      PART-1-1.7404       0.00674554          18.7352           154.18       NO       
      PART-1-1.7409        0.0157178             15.6          148.682       NO       
      PART-1-1.7427       0.00841881          19.4348          156.354       NO       
      PART-1-1.7429       0.00228755          14.6375          159.136       NO       
      PART-1-1.7448       0.00721261          16.4065          154.227       NO       
      PART-1-1.7449        0.0150731          24.9544          152.322       NO       
      PART-1-1.7453       0.00268117          16.4908          158.969       NO       
      PART-1-1.7471        0.0192026          19.5508          149.591       NO       
      PART-1-1.7512      0.000749594          13.7924           162.25       NO       
      PART-1-1.7523      0.000522772          9.62681          163.141       NO       
      PART-1-1.7594       0.00938815          21.1454            154.8       NO       
      PART-1-1.7601        0.0148591          24.0229          153.432       NO       
      PART-1-1.7662       0.00176898          11.1806          159.536       NO       
      PART-1-1.7668       0.00844574          19.4478          152.776       NO       
      PART-1-1.7689       0.00730268           14.382          155.647       NO       
      PART-1-1.7690       0.00944716          18.7797          152.805       NO       
      PART-1-1.7732       0.00174896          13.7722          160.586       NO       
      PART-1-1.7750       0.00186573          10.5169          160.392       NO       
      PART-1-1.7782       0.00176481          15.0457          162.991       NO       
      PART-1-1.7813      3.89959E-05          8.53921           170.93       NO       
      PART-1-1.7814       0.00010236           8.1962          167.975       NO       
      PART-1-1.7819       0.00967704          19.4633          149.345       NO       
      PART-1-1.7848       0.00561046          16.6651          156.468       NO       
      PART-1-1.7851       0.00807155          19.8092          150.128       NO       
      PART-1-1.7901        0.0171599          22.2286          148.094       NO       
      PART-1-1.7933        0.0172323          14.3506          150.707       NO       
      PART-1-1.7941       0.00215187           13.809          160.178       NO       
      PART-1-1.7946        0.0073141          19.5509          156.688       NO       
      PART-1-1.7958        0.0171508          14.8474          149.758       NO       
      PART-1-1.7972      3.59154E-06           4.4383          174.829       NO       
      PART-1-1.7982        0.0057248          14.6183          156.144       NO       
      PART-1-1.7984       0.00884375          21.0194          155.006       NO       
      PART-1-1.7986      0.000164648          9.99223           167.88       NO       
      PART-1-1.7987       0.00781731          14.3795          153.404       NO       
      PART-1-1.7993       0.00719791          17.3695          155.014       NO       
      PART-1-1.8024        0.0194924           23.327          150.928       NO       
      PART-1-1.8088       0.00885831          19.1228          150.193       NO       
      PART-1-1.8136        0.0181704          21.4429          144.384       NO       
      PART-1-1.8141         0.014942          15.5903          148.074       NO       
      PART-1-1.8165        0.0179764          15.9382          148.039       NO       
      PART-1-1.8208        0.0106132          23.1636          154.296       NO       
      PART-1-1.8221        0.0765453          8.98775          158.706       NO       
      PART-1-1.8224        0.0187694          24.4408          152.575       NO       
      PART-1-1.8240        0.0170845          19.4621           150.57       NO       
      PART-1-1.8285       0.00814226          19.3721          153.014       NO       
      PART-1-1.8309        0.0114502          8.90728          164.908       NO       
      PART-1-1.8379        0.0194763          24.7155          152.305       NO       
      PART-1-1.8388      3.05134E-06          3.70587          172.318       NO       
      PART-1-1.8393      1.78177E-05          4.71349          169.774       NO       
      PART-1-1.8394      0.000610534          13.3656           160.35       NO       
      PART-1-1.8399      0.000217551          9.47326          159.781       NO       
      PART-1-1.8404      3.57763E-05           10.168          170.527       NO       
      PART-1-1.8405       3.2053E-05          6.46585          172.854       NO       
      PART-1-1.8406      3.19492E-05          5.14759          171.707       NO       
      PART-1-1.8409      0.000888182          17.6711          162.492       NO       
      PART-1-1.8415       0.00368754          17.5084          153.419       NO       
      PART-1-1.8416       0.00586055          16.2166          156.479       NO       
      PART-1-1.8418       0.00038277           9.6405          168.355       NO       
      PART-1-1.8419       0.00165523          12.6045          151.204       NO       
      PART-1-1.8423      8.81267E-05          8.95627          169.705       NO       
      PART-1-1.8425       0.00707753          20.8885          152.812       NO       
      PART-1-1.8428       0.00425282          16.1497          155.501       NO       
      PART-1-1.8456      2.22459E-05          5.76962          172.637       NO       
      PART-1-1.8464       0.00113169          13.1327          162.306       NO       
      PART-1-1.8466      3.99492E-05          7.81736          172.547       NO       
      PART-1-1.8468       6.8856E-06          3.98397          172.452       NO       
      PART-1-1.8469       0.00948891          18.8518          148.095       NO       
      PART-1-1.8471        8.968E-07          3.60832          176.017       NO       
      PART-1-1.8472      3.98388E-05          5.30557          169.642       NO       
      PART-1-1.8473       0.00720738          24.5779          153.707       NO       
      PART-1-1.8480      6.65068E-06          5.71179          174.693       NO       
      PART-1-1.8489      0.000929935          13.5549          159.418       NO       
      PART-1-1.8500      1.67879E-06          4.49315          175.884       NO       
      PART-1-1.8525        0.0076259          13.9176          154.275       NO       
      PART-1-1.8587       0.00813295          18.6086          153.654       NO       
      PART-1-1.8591       0.00368683          12.2117          155.572       NO       
      PART-1-1.8632       0.00562086          15.1732          158.101       NO       
      PART-1-1.8700         0.011587          14.9415          148.368       NO       
      PART-1-1.8701       0.00566967           19.652          154.667       NO       
      PART-1-1.8711       0.00728337          16.6135          153.539       NO       
      PART-1-1.8734       0.00724588          14.9552          155.397       NO       
      PART-1-1.8737       0.00782997          13.2213          154.053       NO       
      PART-1-1.8744        0.0135126          18.9728          150.612       NO       
      PART-1-1.8820       0.00656923          19.3655          151.433       NO       
      PART-1-1.8851       0.00523324          13.9598          158.629       NO       
      PART-1-1.8886        0.0119572          20.2296           155.71       NO       
      PART-1-1.8889       0.00524146           16.314          156.869       NO       
      PART-1-1.8898        0.0193404          13.7811          148.979       NO       
      PART-1-1.8937        0.0765471          8.98862          158.704       NO       
      PART-1-1.8942       0.00733546          19.7699          150.687       NO       
      PART-1-1.8946        0.0124371          23.8383           153.49       NO       
      PART-1-1.8992        0.0114936          21.8963          155.863       NO       
      PART-1-1.8993       0.00460712          16.4869          157.388       NO       
      PART-1-1.9046        0.0148948          16.9209          152.531       NO       
      PART-1-1.9047       0.00105565          15.7258          163.179       NO       
      PART-1-1.9090        0.0126502          19.4544          154.189       NO       
      PART-1-1.9092       0.00973279          17.1042          153.306       NO       
      PART-1-1.9124       0.00265785          18.4702          160.597       NO       
      PART-1-1.9127       0.00176255          11.3623          159.266       NO       
      PART-1-1.9134       0.00168877          24.0199           163.25       NO       
      PART-1-1.9144       0.00682298          15.7942          154.824       NO       
      PART-1-1.9161       0.00200754          15.5289           158.44       NO       
      PART-1-1.9168       0.00612129          13.5076          152.336       NO       
      PART-1-1.9196      5.64294E-06          4.91193          174.852       NO       
      PART-1-1.9210       0.00213495          12.4895          154.392       NO       
      PART-1-1.9249       0.00289087          8.09988          164.863       NO       
      PART-1-1.9281       0.00705532          20.7139          155.743       NO       
      PART-1-1.9283       0.00642774          19.4954          154.076       NO       
      PART-1-1.9287       0.00984814          19.6727          152.159       NO       
      PART-1-1.9303       0.00990236          17.6288          152.817       NO       
      PART-1-1.9328       0.00684819          19.3118          157.154       NO       
      PART-1-1.9341       0.00681498          12.9416          155.286       NO       
      PART-1-1.9357      0.000535575          11.4872          164.183       NO       
      PART-1-1.9396        0.0152342          11.1069          161.414       NO       
      PART-1-1.9404        0.0166583          25.0233          152.524       NO       
      PART-1-1.9408        0.0100099           12.486          156.871       NO       
      PART-1-1.9416       0.00925624          18.3741          150.265       NO       
      PART-1-1.9450       0.00759273          20.7295          154.933       NO       
      PART-1-1.9481       0.00713283          19.2155          153.783       NO       
      PART-1-1.9491        0.0142519          24.5293          152.764       NO       
      PART-1-1.9510       0.00519636          16.4184          156.869       NO       
      PART-1-1.9513       0.00920522          17.3361           153.45       NO       
      PART-1-1.9515       0.00708844          13.1189          155.199       NO       
      PART-1-1.9543       0.00448544          7.46668          167.024       NO       
      PART-1-1.9576        0.0105046           15.069           148.82       NO       
      PART-1-1.9577       0.00343944          17.3608          155.422       NO       
      PART-1-1.9581       0.00242176          14.4609          159.545       NO       
      PART-1-1.9595       0.00491937          19.4135          158.106       NO       
      PART-1-1.9606        0.0054098          14.8476          155.992       NO       
      PART-1-1.9610        0.0149082          16.4911          151.585       NO       
      PART-1-1.9621        0.0152524           20.677          149.509       NO       
      PART-1-1.9655       0.00613446          20.6882          156.968       NO       
      PART-1-1.9658         0.114485          9.34613          160.113       NO       
      PART-1-1.9696         0.017499          13.5337          145.593       NO       
      PART-1-1.9753       0.00189341          10.5368          160.712       NO       
      PART-1-1.9755       0.00137042          16.3507          160.888       NO       
      PART-1-1.9775        0.0124323          14.0348           152.16       NO       
      PART-1-1.9779       0.00344215          14.8584           157.36       NO       
      PART-1-1.9822      0.000199219          11.1255          168.557       NO       
      PART-1-1.9916        0.0146348          15.9511          147.503       NO       
      PART-1-1.9920        0.0153335            23.75           153.58       NO       
      PART-1-1.9939       0.00710752          20.4218          155.993       NO       
      PART-1-1.9963        0.0171158          20.1608           145.73       NO       
      PART-1-1.9969       0.00706764          20.3494           153.22       NO       
      PART-1-1.9970        0.0102151          20.2451          148.727       NO       
      PART-1-1.9981       0.00971652          17.1948          153.304       NO       
     PART-1-1.10002        0.0157459          14.0559          146.997       NO       
     PART-1-1.10034        0.0159554          23.6364          145.676       NO       
     PART-1-1.10043       0.00565777          15.1348          156.237       NO       
     PART-1-1.10044        0.0166061           21.592          144.858       NO       
     PART-1-1.10068       0.00778837          18.3698          151.378       NO       
     PART-1-1.10090        0.0102882            20.37           155.47       NO       
     PART-1-1.10149        0.0192927          15.4088           149.51       NO       
     PART-1-1.10150        0.0132517          17.9953          152.329       NO       
     PART-1-1.10158       0.00508471          15.4247          156.341       NO       
     PART-1-1.10187        0.0124466          17.8787          152.893       NO       
     PART-1-1.10207      0.000349874          9.68051          163.262       NO       
     PART-1-1.10209       0.00339061           13.222          156.211       NO       
     PART-1-1.10211      0.000278916          12.9924          167.005       NO       
     PART-1-1.10212        0.0130695          23.2276          154.077       NO       
     PART-1-1.10249       0.00850512          19.5144          152.743       NO       
     PART-1-1.10253       0.00580733            14.76          156.478       NO       
     PART-1-1.10284        0.0190922          16.9679          153.603       NO       
     PART-1-1.10389        0.0178492          20.1537          145.219       NO       
     PART-1-1.10392        0.0142565          20.3868          152.937       NO       
     PART-1-1.10398        0.0174837          13.5899          144.826       NO       
     PART-1-1.10529        0.0014691          11.0619          159.925       NO       
     PART-1-1.10531        0.0153121          21.2857          145.576       NO       
     PART-1-1.10532       0.00146925          15.9879          162.531       NO       
     PART-1-1.10560        0.0157658          18.1399           151.11       NO       
     PART-1-1.10578       0.00161027           11.958          158.775       NO       
     PART-1-1.10583        0.0126457           21.914          146.571       NO       
     PART-1-1.10613        0.0128979          24.0127          153.347       NO       
     PART-1-1.10629       0.00620325          18.0247          155.109       NO       
     PART-1-1.10652       0.00372007          11.8903          152.943       NO       
     PART-1-1.10653       0.00130579          15.4145          160.319       NO       
     PART-1-1.10656       0.00228865          14.6205          162.537       NO       
     PART-1-1.10667       0.00621623          14.2847           154.29       NO       
     PART-1-1.10671        0.0138532          23.8535           153.51       NO       
     PART-1-1.10672       0.00689585          19.5553          151.067       NO       
     PART-1-1.10676       0.00304992          16.6002          160.843       NO       
     PART-1-1.10696        0.0175649          25.2913          151.568       NO       
     PART-1-1.10776      5.62937E-06          4.02137          173.601       NO       
     PART-1-1.10908       0.00658803           13.249          155.495       NO       
     PART-1-1.10998       0.00696168          21.0149          155.851       NO       
     PART-1-1.10999        0.0158534          15.6381          145.761       NO       
     PART-1-1.11001       0.00509414          18.9417          153.026       NO       
     PART-1-1.11065      0.000145526          10.9926          168.863       NO       
     PART-1-1.11067       0.00101558          11.1355          160.274       NO       
     PART-1-1.11084        0.0101168            17.95          154.227       NO       
     PART-1-1.11087        0.0158051          15.7818          147.813       NO       
     PART-1-1.11112       0.00216123          10.7692          160.168       NO       
     PART-1-1.11115       0.00241222           17.407          161.429       NO       
     PART-1-1.11118       0.00366111          17.8195          158.866       NO       
     PART-1-1.11130       0.00531864          16.5029          156.655       NO       
     PART-1-1.11131       0.00656091          19.8221           157.26       NO       
     PART-1-1.11132        0.0135787          16.1135          146.874       NO       
     PART-1-1.11133         0.018241          23.3447          151.305       NO       
     PART-1-1.11134       0.00687626          20.1915          156.238       NO       
     PART-1-1.11136       0.00684389          14.3218          153.987       NO       
     PART-1-1.11156       0.00272288          16.8453          156.504       NO       
     PART-1-1.11167        0.0125717          20.5603          147.287       NO       
     PART-1-1.11175       0.00201565          15.9154          159.861       NO       
     PART-1-1.11176       0.00806749          14.4598          153.929       NO       
     PART-1-1.11181       0.00810648           20.435          155.514       NO       
     PART-1-1.11192        0.0196992          17.0048          151.057       NO       
     PART-1-1.11198        0.0078195          14.9668          149.856       NO       
     PART-1-1.11202        0.0105182          20.3241          148.328       NO       
     PART-1-1.11205       0.00133013          12.9616          161.905       NO       
     PART-1-1.11224        0.0119747          17.7843          153.053       NO       
     PART-1-1.11245        0.0123339          19.4559          152.961       NO       
     PART-1-1.11248        0.0141422          15.3442          148.652       NO       
     PART-1-1.11249        0.0125125          20.4521          147.367       NO       
     PART-1-1.11321        0.0148424          15.7909          147.388       NO       
     PART-1-1.11391        0.0109918           20.728             148.       NO       
     PART-1-1.11415       0.00797114           18.739          150.963       NO       
     PART-1-1.11467        0.0178306          13.8251          144.761       NO       
     PART-1-1.11517        0.0108086          23.7313          149.891       NO       
     PART-1-1.11562       0.00655626          17.3187          155.589       NO       
     PART-1-1.11618       0.00106425          18.4499          161.277       NO       
     PART-1-1.11730       0.00262265          17.5304          159.112       NO       
     PART-1-1.11756        0.0075584          13.5218          155.177       NO       
     PART-1-1.11772        0.0119107          19.7584          147.953       NO       
     PART-1-1.11777        0.0160415          23.0576          151.595       NO       
     PART-1-1.11778        0.0161204          15.3536          148.797       NO       
     PART-1-1.11779       0.00461235           17.291          154.181       NO       
     PART-1-1.11782        0.0143955          23.6533          152.694       NO       
     PART-1-1.11797       0.00897378          20.6915          149.272       NO       
     PART-1-1.11802        0.0166884           21.152          153.139       NO       
     PART-1-1.11957        0.0105341           17.812          152.477       NO       
     PART-1-1.12051        0.0086805          19.3898          150.208       NO       
     PART-1-1.12106        0.0154672          18.1863          151.263       NO       
     PART-1-1.12121        0.0173625          15.1932          149.265       NO       
     PART-1-1.12164        0.0184562          17.2563          150.254       NO       
     PART-1-1.12178        0.0154745          21.0351          145.656       NO       
     PART-1-1.12185       0.00533392          14.8725           156.35       NO       
     PART-1-1.12208      0.000476042          11.7708          164.274       NO       
     PART-1-1.12263       0.00815734          17.7296          154.265       NO       
     PART-1-1.12296        0.0143927          24.2703          153.223       NO       
     PART-1-1.12298       0.00671498          15.5606           154.85       NO       
     PART-1-1.12341        0.0185902           17.341          152.123       NO       
     PART-1-1.12394      0.000343395          9.91663          160.644       NO       
     PART-1-1.12395      0.000173104          11.2904          166.693       NO       
     PART-1-1.12396      0.000764508          14.3828           165.27       NO       
     PART-1-1.12398      0.000340312          12.6116          166.907       NO       
     PART-1-1.12447      0.000426305          9.79112          160.217       NO       
     PART-1-1.12449      0.000204243          11.5453           166.44       NO       
     PART-1-1.12451       0.00207103          15.9615          158.179       NO       
     PART-1-1.12452      0.000520224          13.9933          165.252       NO       
     PART-1-1.12453      0.000374839          12.1331          167.079       NO       
     PART-1-1.12466        0.0142632          13.1865          159.486       NO       
     PART-1-1.12496        0.0197522          23.1506          151.461       NO       
     PART-1-1.12501       0.00624674           17.822          155.334       NO       
     PART-1-1.12517        0.0134135          18.7169          152.229       NO       
     PART-1-1.12549        0.0141635           20.546          146.566       NO       
     PART-1-1.12587       0.00200596          15.4358          160.239       NO       
     PART-1-1.12591       0.00564548          18.0868           152.77       NO       
     PART-1-1.12592        0.0192028          16.2392          147.236       NO       
     PART-1-1.12597        0.0172408          15.4795          149.373       NO       
     PART-1-1.12706       0.00130269          13.6601          161.508       NO       
     PART-1-1.12717       0.00791367          13.9745          153.891       NO       
     PART-1-1.12730       0.00724674          20.4539          156.376       NO       
     PART-1-1.12748       0.00174335          15.7293          160.478       NO       
     PART-1-1.12780        0.0174812          13.5901          144.806       NO       
     PART-1-1.12813       0.00633197          15.2821           155.57       NO       
     PART-1-1.12814        0.0176822          21.3534          144.609       NO       
     PART-1-1.12817       0.00808033          20.6871          155.503       NO       
     PART-1-1.12838       0.00425171          17.2425          154.556       NO       
     PART-1-1.12843       0.00804238          14.5051          153.383       NO       
     PART-1-1.12849       0.00712491          19.4329           156.89       NO       
     PART-1-1.12855        0.0112171          20.6663          147.913       NO       
     PART-1-1.12857       0.00998783          18.7661          149.603       NO       
     PART-1-1.12935        0.0196404          14.3905          150.643       NO       
     PART-1-1.12944       0.00230786          14.7201          159.731       NO       
     PART-1-1.12957       0.00161874           12.148          160.812       NO       
     PART-1-1.12958        0.0171824          23.6488          151.083       NO       
     PART-1-1.13014        0.0114828          20.1738          155.791       NO       
     PART-1-1.13015        0.0189232          13.5524          149.092       NO       
     PART-1-1.13047       0.00702731          19.4839          151.098       NO       
     PART-1-1.13050       0.00778614           14.777          152.748       NO       
     PART-1-1.13059        0.0197233           21.962          143.432       NO       
     PART-1-1.13076        0.0111827          22.5741          154.899       NO       
     PART-1-1.13079       0.00503608          14.4486          157.089       NO       
     PART-1-1.13137       0.00862717          14.3379          154.025       NO       
     PART-1-1.13183       0.00708373          18.4377          154.304       NO       
     PART-1-1.13275      0.000146507          8.86236          162.834       NO       
     PART-1-1.13299       0.00804211          16.4319          154.364       NO       
     PART-1-1.13331       0.00621043          14.6112          155.931       NO       
     PART-1-1.13333        0.0179283          19.3342          150.124       NO       
     PART-1-1.13334      0.000526085          10.2248          162.337       NO       
     PART-1-1.13337       0.00121034          11.9022          155.804       NO       
     PART-1-1.13339      0.000528138          13.4572          165.716       NO       
     PART-1-1.13419       0.00158937          13.0025          160.073       NO       
     PART-1-1.13438       0.00288936          18.7289          160.241       NO       
     PART-1-1.13500       0.00236487          14.5138          159.042       NO       
     PART-1-1.13522       0.00389449          12.7783          160.603       NO       
     PART-1-1.13574       0.00649826          20.1724          153.823       NO       
     PART-1-1.13605       0.00705387          19.8451          153.488       NO       
     PART-1-1.13628       0.00693405          14.8309          152.519       NO       
     PART-1-1.13661       0.00142388          11.0381          157.811       NO       
     PART-1-1.13662        0.0161549          21.8441           148.55       NO       
     PART-1-1.13668       0.00624037          19.9377          156.619       NO       
     PART-1-1.13672      0.000548897          13.9664          163.029       NO       
     PART-1-1.13673        0.0114225          15.7303          154.071       NO       
     PART-1-1.13701      0.000559772          13.4692            164.4       NO       
     PART-1-1.13751        0.0123122          23.3524          154.006       NO       
     PART-1-1.13767       0.00678014          16.3884          154.526       NO       
     PART-1-1.13816       0.00868308          20.8368          155.188       NO       
     PART-1-1.13842       0.00891616          17.8778             155.       NO       
     PART-1-1.13851        0.0123951           23.979           153.34       NO       
     PART-1-1.13852       0.00943378           15.814          151.781       NO       
     PART-1-1.13853        0.0155016          21.7293          148.994       NO       
     PART-1-1.13871        0.0157826          15.7819          149.452       NO       
     PART-1-1.13876      5.57206E-05          7.12089           166.74       NO       
     PART-1-1.13878        0.0180199          20.5308          149.787       NO       
     PART-1-1.13889      6.50098E-05           8.5155          168.797       NO       
     PART-1-1.13894       0.00106888          11.4819           157.34       NO       
     PART-1-1.13897      0.000172595          8.83167          166.777       NO       
     PART-1-1.13904      0.000471787           13.028          163.762       NO       
     PART-1-1.13905        0.0100889          20.3138          148.793       NO       
     PART-1-1.13910       0.00407749          15.6098          157.055       NO       
     PART-1-1.13914        0.0127654          15.3502          149.271       NO       
     PART-1-1.13915       0.00408725          12.4647          155.489       NO       
     PART-1-1.13918       0.00314405          18.1809          160.699       NO       
     PART-1-1.13923        0.0170957          16.1853          149.729       NO       
     PART-1-1.13924       0.00101858          15.0302          163.816       NO       
     PART-1-1.13988      0.000447772          10.1334          164.488       NO       
     PART-1-1.13990      0.000531934          12.6971          164.937       NO       
     PART-1-1.13993      0.000140764          11.3644          168.433       NO       
     PART-1-1.13995       0.00476572          13.9808          151.114       NO       
     PART-1-1.14000       0.00558946          19.9456          158.321       NO       
     PART-1-1.14004       0.00343211          17.3276          157.693       NO       
     PART-1-1.14016       0.00047728          9.59081           161.17       NO       
     PART-1-1.14020       0.00757151          13.1216          155.429       NO       
     PART-1-1.14021        0.0121536          19.3264          148.137       NO       
     PART-1-1.14027      7.35574E-05          7.43918           165.82       NO       
     PART-1-1.14028      0.000420285           10.293          159.355       NO       
     PART-1-1.14031       0.00131087           13.487          161.632       NO       
     PART-1-1.14041      4.44082E-05          7.12488          168.089       NO       
     PART-1-1.14044      0.000166163          9.91765          167.069       NO       
     PART-1-1.14045      6.32831E-05          9.49213          170.684       NO       
     PART-1-1.14049       0.00117932          16.0712          162.578       NO       
     PART-1-1.14056      6.00814E-05          9.95198          170.083       NO       
     PART-1-1.14058      3.55952E-05          7.83303          170.047       NO       
     PART-1-1.14067        0.0133604          24.3126          153.037       NO       
     PART-1-1.14093       0.00982749          19.9311           148.98       NO       
     PART-1-1.14107       0.00814824          14.3859          153.689       NO       
     PART-1-1.14109       0.00806864          14.8212           152.67       NO       
     PART-1-1.14121       0.00691689          17.5961          155.196       NO       
     PART-1-1.14129        0.0171577          21.6572          148.362       NO       
     PART-1-1.14219       0.00715522          18.2142          154.823       NO       
     PART-1-1.14284        0.0171897          16.4544          155.438       NO       
     PART-1-1.14300       0.00650246           11.408          160.329       NO       
     PART-1-1.14319       0.00336653          13.1117          153.995       NO       
     PART-1-1.14323       0.00125359          14.7023          160.273       NO       
     PART-1-1.14328       0.00707693          19.0419          153.766       NO       
     PART-1-1.14344         0.013801           24.253          153.055       NO       
     PART-1-1.14350       0.00716186          20.2678          153.135       NO       
     PART-1-1.14355       0.00649197          15.8564          155.117       NO       
     PART-1-1.14367        0.0195763           20.532          144.612       NO       
     PART-1-1.14406       0.00869249           17.155          153.909       NO       
     PART-1-1.14427         0.016441          16.8358          152.524       NO       
     PART-1-1.14434        0.0196278          22.0503           147.36       NO       
     PART-1-1.14509        0.0151271          16.3128          148.498       NO       
     PART-1-1.14520       0.00947838          21.8641          153.999       NO       
     PART-1-1.14522       0.00533769          16.8872           157.08       NO       
     PART-1-1.14529       0.00547835          13.8824          150.688       NO       
     PART-1-1.14539      0.000223564          11.3811          166.283       NO       
     PART-1-1.14550        0.0051556          18.4653          158.192       NO       
     PART-1-1.14551       0.00616475          13.5601          151.595       NO       
     PART-1-1.14560      0.000482567          9.87341          160.392       NO       
     PART-1-1.14675        0.0171619          20.2651          145.636       NO       
     PART-1-1.14687        0.0054983          10.7389          163.247       NO       
     PART-1-1.14708        0.0183187          13.9969          152.401       NO       
     PART-1-1.14732        0.0407423          10.9866          160.543       NO       
     PART-1-1.14811       0.00387301          12.9818          151.893       NO       
     PART-1-1.14822       0.00257977          13.0663          153.839       NO       
     PART-1-1.14823       0.00148206          16.4687          160.592       NO       
     PART-1-1.14852       0.00907254          13.6754           161.27       NO       
     PART-1-1.14875        0.0133356          23.6779          153.748       NO       
     PART-1-1.14882        0.0116475          14.0931          152.088       NO       
     PART-1-1.14895       0.00175767          10.4911           160.58       NO       
     PART-1-1.14904        0.0175717          21.9657          147.545       NO       
     PART-1-1.14907       0.00314615          15.5706          156.674       NO       
     PART-1-1.14908        0.0165172          18.5095          149.208       NO       
     PART-1-1.14925       0.00548619          16.8367          156.845       NO       
     PART-1-1.14927        0.0174214          22.0584          148.114       NO       
     PART-1-1.14939       0.00642412          16.8192           155.96       NO       
     PART-1-1.14945        0.0154778          22.7744           152.11       NO       
     PART-1-1.14947       0.00052321          13.4632          165.751       NO       
     PART-1-1.14966        0.0030355          11.4531          158.681       NO       
     PART-1-1.14971       0.00300565          13.2366          153.668       NO       
     PART-1-1.14979        0.0096613          18.2938          152.727       NO       
     PART-1-1.14980       0.00146202           13.107          160.426       NO       
[...]
     PART-1-1.34285       0.00709681          20.1642          153.243       NO       
     PART-1-1.34322        0.0167713          13.0917          144.879       NO       
     PART-1-1.34343        0.0129982          20.2306          153.108       NO       
     PART-1-1.34346        0.0097774          8.62339           162.48       NO       
     PART-1-1.34347        0.0167659          13.0898          144.884       NO       
     PART-1-1.34351        0.0187319          22.2572          143.041       NO       
     PART-1-1.34376        0.0129986          20.2292          153.108       NO       
     PART-1-1.34413        0.0175812          16.9142          152.078       NO       
     PART-1-1.34417       0.00858146          19.9495          149.737       NO       
     PART-1-1.34439       0.00910492          8.95957          162.282       NO       
     PART-1-1.34480       0.00150212          10.1793          163.419       NO       
     PART-1-1.34495       0.00680496          19.2051          154.076       NO       
     PART-1-1.34555        0.0190284          21.5941          143.966       NO       
     PART-1-1.34603       0.00607221          17.9917          152.483       NO       
     PART-1-1.34704        0.0139743          23.5992          153.871       NO       
     PART-1-1.34707       0.00627063          14.8398          155.758       NO       
     PART-1-1.34714        0.0175412          14.9053          149.898       NO       
     PART-1-1.34745        0.0497521          4.57133          168.364       NO       
     PART-1-1.34784      0.000281159          10.7185          165.476       NO       
     PART-1-1.34798        0.0164513          16.3291          153.725       NO       
     PART-1-1.34911       0.00079681           13.699          163.633       NO       
     PART-1-1.34971         0.019016          21.4739          154.616       NO       
     PART-1-1.34986       0.00697976          12.7724          155.579       NO       
     PART-1-1.34997       0.00514401          16.3347          155.844       NO       
     PART-1-1.35093         0.014796           16.675           154.58       NO       
     PART-1-1.35110        0.0090438          17.0708            153.8       NO       
     PART-1-1.35241        0.0167582          19.8322          150.388       NO       
     PART-1-1.35250         0.014852          15.3293          150.543       NO       
     PART-1-1.35290       0.00764226          17.1491          155.856       NO       
     PART-1-1.35301       0.00138454          15.1322          159.734       NO       
     PART-1-1.35303      0.000933051          10.3894          160.038       NO       
     PART-1-1.35448       0.00224501           12.121          159.408       NO       
     PART-1-1.35449        0.0171173          20.1474          148.211       NO       
     PART-1-1.35453       0.00058277          10.3243          162.059       NO       
     PART-1-1.35464       0.00889114          19.1053          152.881       NO       
     PART-1-1.35507       0.00754807          14.3302          153.026       NO       
     PART-1-1.35509       0.00670126          18.7551          151.765       NO       
     PART-1-1.35510       0.00758249          20.7598          155.858       NO       
     PART-1-1.35513       0.00262052          18.3268          160.449       NO       
     PART-1-1.35531        0.0148702          20.4539          152.847       NO       
     PART-1-1.35543        0.0145122          24.0088           153.28       NO       
     PART-1-1.35574       0.00556007           14.657          156.651       NO       
     PART-1-1.35575        0.0186816          15.5755          149.077       NO       
     PART-1-1.35592       0.00793033          14.2004          154.255       NO       
     PART-1-1.35614        0.0276025          9.68477          160.069       NO       
     PART-1-1.35615       0.00555097          14.2083          159.284       NO       
     PART-1-1.35715        0.0308573          9.02685          156.887       NO       
     PART-1-1.35726         0.014671          16.1055          147.283       NO       
     PART-1-1.35757        0.0137258          20.3647           153.41       NO       
     PART-1-1.35856      0.000105156          8.14683          166.198       NO       
     PART-1-1.35897       0.00630346          15.2595          155.448       NO       
     PART-1-1.35972       0.00491029          18.5007          158.531       NO       
     PART-1-1.35977        0.0154488          15.7906          147.604       NO       
     PART-1-1.36017       0.00387093          12.6847           153.37       NO       
     PART-1-1.36020         0.020648          9.99681          148.476       NO       
     PART-1-1.36029       0.00553666          14.1932          159.306       NO       
     PART-1-1.36037       0.00262863          14.9217          159.324       NO       
     PART-1-1.36041       0.00674697          15.8219          154.581       NO       
     PART-1-1.36128       0.00783001          18.0965            154.5       NO       
     PART-1-1.36173      0.000523985          12.8891          166.169       NO       
     PART-1-1.36202        0.0103432          20.2146          148.626       NO       
     PART-1-1.36204        0.0121464          11.8054          159.828       NO       
     PART-1-1.36217       0.00517018          9.43522          163.613       NO       
     PART-1-1.36268         0.013297           15.335           147.47       NO       
     PART-1-1.36270        0.0166787          25.7835          151.564       NO       
     PART-1-1.36293       0.00668531          19.4574          157.306       NO       
     PART-1-1.36301       0.00606364          15.6014          155.344       NO       
     PART-1-1.36303        0.0017697          16.2907          162.039       NO       
     PART-1-1.36307        0.0070996          14.4671          153.836       NO       
     PART-1-1.36313       0.00823014          13.6648          154.271       NO       
     PART-1-1.36319       0.00959221          17.5874          153.419       NO       
     PART-1-1.36324       0.00111319          10.5925          159.602       NO       
     PART-1-1.36355       0.00815949          20.8652          155.317       NO       
     PART-1-1.36489        0.0180131          16.5559          149.719       NO       
     PART-1-1.36514       0.00563194          15.1873          158.098       NO       
     PART-1-1.36540        0.0142716          20.3877          152.922       NO       
     PART-1-1.36559        0.0133738          19.9557          153.072       NO       
     PART-1-1.36570       0.00851179          21.8067          151.799       NO       
     PART-1-1.36572        0.0145932          14.6132          151.585       NO       
     PART-1-1.36611        0.0277123          9.69503          160.054       NO       
     PART-1-1.36793       0.00568083          13.6745          159.515       NO       
     PART-1-1.36891       0.00166972          13.5223          161.264       NO       
     PART-1-1.36894       0.00492543          18.7358          158.152       NO       
     PART-1-1.36895        0.0060128          16.8636          156.296       NO       
     PART-1-1.36942        0.0188308          23.1396           146.76       NO       
     PART-1-1.36944        0.0161093           18.253           151.01       NO       
     PART-1-1.37003       0.00765492          14.4336          152.004       NO       
     PART-1-1.37004       0.00768386          9.54936          160.418       NO       
     PART-1-1.37026       0.00682652           16.164          159.616       NO       
     PART-1-1.37027         0.015859          18.1475          153.051       NO       
     PART-1-1.37028        0.0158519           14.037          148.424       NO       
     PART-1-1.37055        0.0174271          17.6214          146.196       NO       
     PART-1-1.37061        0.0145415          32.8156          152.756       NO       
     PART-1-1.37065       0.00895803          27.7759          156.205       NO       
     PART-1-1.37096        0.0103478          33.2042          154.241       NO       
     PART-1-1.37130        0.0184804          18.3249          150.942       NO       
     PART-1-1.37131        0.0178777          18.0777          157.948       NO       
     PART-1-1.37187        0.0111777          27.8548          155.049       NO       
     PART-1-1.37191       0.00897779          13.2815          158.358       NO       
     PART-1-1.37194        0.0109892          10.5363          160.958       NO       
     PART-1-1.37232        0.0112825          10.2724          162.646       NO       
     PART-1-1.37233        0.0110148          4.25969          169.728       NO       
     PART-1-1.37235       0.00288161          12.4629           158.73       NO       
     PART-1-1.37258        0.0161281          20.9609          155.582       NO       
     PART-1-1.37278        0.0582917          9.64375          163.252       NO       
     PART-1-1.37287       0.00635934          18.7091          156.405       NO       
     PART-1-1.37291        0.0186081          8.31515          158.927       NO       
     PART-1-1.37300        0.0148401          19.5951          148.923       NO       
     PART-1-1.37318        0.0106557           12.306          155.969       NO       
     PART-1-1.37377        0.0184571           18.311          150.915       NO       
     PART-1-1.37378        0.0179528          18.0917          157.949       NO       
     PART-1-1.37451       0.00843239          18.4716          156.547       NO       
     PART-1-1.37460       0.00543904           23.935          158.117       NO       
     PART-1-1.37464       0.00720372          18.6985          157.673       NO       
     PART-1-1.37485        0.0102619          8.48806          156.123       NO       
     PART-1-1.37487       0.00706402          21.4214          159.496       NO       
     PART-1-1.37505          0.13393          9.12293          155.253       NO       
     PART-1-1.37518        0.0174005          17.6242          146.207       NO       
     PART-1-1.37560       0.00749277          28.8297          157.587       NO       
     PART-1-1.37563        0.0199571          27.8607          148.404       NO       
     PART-1-1.37564        0.0178493           23.753          149.758       NO       
     PART-1-1.37588        0.0160946          20.9537          155.614       NO       
     PART-1-1.37592        0.0160148          20.9181          155.595       NO       
     PART-1-1.37628        0.0132524          13.4762          156.219       NO       
     PART-1-1.37629       0.00987668          20.8041          153.862       NO       
     PART-1-1.37630        0.0109338          19.9539          150.597       NO       
     PART-1-1.37642       0.00210014          19.9978          160.153       NO       
     PART-1-1.37646        0.0657612           7.2702          162.985       NO       
     PART-1-1.37648         0.177874          9.46915          153.517       NO       
     PART-1-1.37657        0.0188377          15.0357          155.451       NO       
     PART-1-1.37658       0.00787368          30.7455          156.167       NO       
     PART-1-1.37736       0.00535529          28.0957          159.103       NO       
     PART-1-1.37738        0.0174477           17.632          146.184       NO       
     PART-1-1.37769       0.00700672          14.4273          147.047       NO       
     PART-1-1.37770       0.00705578           7.7763          164.026       NO       
     PART-1-1.37785        0.0400874          9.63123          131.695       NO       
     PART-1-1.37824        0.0117466          25.6646          153.546       NO       
     PART-1-1.37827       0.00735096          14.5141          146.479       NO       
     PART-1-1.37828       0.00740313          7.82352          163.853       NO       
     PART-1-1.37872       0.00378662          10.4158          158.562       NO       
     PART-1-1.37874        0.0184942          18.3285          150.936       NO       
     PART-1-1.37875        0.0178674          18.0745          157.952       NO       
     PART-1-1.37902        0.0055162          12.1653          155.933       NO       
     PART-1-1.37971       0.00412551          17.3521          158.134       NO       
     PART-1-1.37974        0.0262721          9.97023          152.354       NO       
     PART-1-1.37975        0.0211005          8.20332          157.947       NO       
     PART-1-1.37997        0.0209315          7.39281          160.925       NO       
     PART-1-1.37999        0.0842773          7.66591          161.469       NO       
     PART-1-1.38120       0.00635584          18.7075          156.408       NO       
     PART-1-1.38124        0.0186197           8.3165          158.923       NO       
     PART-1-1.38332         0.010872          23.5911          152.371       NO       
     PART-1-1.38333        0.0112691          19.9682          149.028       NO       
     PART-1-1.38339        0.0143923          16.7369          158.648       NO       
     PART-1-1.38413        0.0105048          15.8761          156.197       NO       
     PART-1-1.38562       0.00637494          18.7356          156.389       NO       
     PART-1-1.38566        0.0185128          8.29489          158.979       NO       
     PART-1-1.38568        0.0145982          16.1661          153.795       NO       
     PART-1-1.38659       0.00567807          12.4415          157.937       NO       
     PART-1-1.38753       0.00553597          13.4666          158.922       NO       
     PART-1-1.38806       0.00555055          13.4692          158.916       NO       
     PART-1-1.38849        0.0147837          15.8521          151.152       NO       
     PART-1-1.38910       0.00150485          9.61284          166.218       NO       
     PART-1-1.38911       0.00239188          13.8501          162.484       NO       
     PART-1-1.39104        0.0184734          18.3231          150.947       NO       
     PART-1-1.39105        0.0178866          18.0809          157.944       NO       
     PART-1-1.39156        0.0125194          18.2414          155.091       NO       
     PART-1-1.39388       0.00557117           13.486          158.891       NO       
     PART-1-1.39431         0.010873          23.5923          152.371       NO       
     PART-1-1.39432         0.011272          19.9696          149.023       NO       
     PART-1-1.39520        0.0127257          17.6066          154.726       NO       
     PART-1-1.39523        0.0182016          9.62209          160.418       NO       
     PART-1-1.39653       0.00556317          13.4783            158.9       NO       
     PART-1-1.39663        0.0224835           7.3306          160.915       NO       
     PART-1-1.39665        0.0886646          7.56843           161.62       NO       
     PART-1-1.39751        0.0147958           15.864           151.15       NO       
     PART-1-1.39780       0.00554496          13.4676          158.916       NO       
     PART-1-1.39819        0.0147971          15.8649          151.149       NO       
     PART-1-1.39864       0.00399707          10.8842          160.564       NO       
     PART-1-1.39972        0.0138635          16.2228          151.253       NO       
     PART-1-1.39977        0.0039346          10.8582           160.66       NO       
     PART-1-1.40027        0.0788311          7.00921          162.108       NO       
     PART-1-1.40038        0.0155012          12.2345          150.799       NO       
     PART-1-1.40250       0.00586137          10.5882          158.731       NO       
     PART-1-1.40262       0.00389599           10.835          160.693       NO       
     PART-1-1.40823       0.00523745          11.3699          159.718       NO       
     PART-1-1.40960       0.00389242          7.18644          165.511       NO       
     PART-1-1.40961        0.0183389          14.6919          150.538       NO       
     PART-1-1.41008          0.06536          5.86858          161.591       NO       
     PART-1-1.41010       0.00328536          8.63055          164.539       NO       
  
  
 --------------------------------------------------------------------------------
 Elements with small volume
  
      Element       Adjusted nodes 
 ------------------ -------------- 
     PART-1-1.29983       NO       
  
  *Step, name=Step-1, nlgeom=NO, perturbation
  *output, field, variable=PRESELECT
  *Step, name=Step-1, nlgeom=NO, perturbation

 ***ERROR: NODE SET ASSEMBLY_BOTTOM_SET_PIN HAS NOT BEEN DEFINED

 ***ERROR: NODE SET ASSEMBLY_BOTTOM_SET_PIN HAS NOT BEEN DEFINED

 ***ERROR: NODE SET ASSEMBLY_TOP_SET_PIN HAS NOT BEEN DEFINED

 ***ERROR: NODE SET ASSEMBLY_TOP_SET_PIN HAS NOT BEEN DEFINED

 ***ERROR: NODE SET ASSEMBLY_TOP_SET_PIN HAS NOT BEEN DEFINED

 ***ERROR: NODE SET ASSEMBLY_TOP_SET_PIN HAS NOT BEEN DEFINED
  *Step, name=Step-1, nlgeom=NO, perturbation
  *buckle
  *boundary, op=NEW, loadcase=1
  *boundary, op=NEW, loadcase=2
  *boundary, op=NEW, loadcase=1
  *boundary, op=NEW, loadcase=2
  *dsload

 ***ERROR: THE SURFACE ASSEMBLY_TOP_SURFACE HAS NOT BEEN LOCATED
 LINE IMAGE: ASSEMBLY_TOP_SURFACE, P, 1.
  *output, field, variable=PRESELECT
  *endstep
  *Step, name=Step-1, nlgeom=NO, perturbation
  *buckle
  *buckle
  *boundary, op=NEW, loadcase=1

 ***ERROR: A BOUNDARY CONDITION HAS BEEN SPECIFIED ON NODE SET 
           ASSEMBLY_BOTTOM_SET_PIN BUT THIS NODE SET IS NOT ACTIVE IN THE MODEL
  *boundary, op=NEW, loadcase=2

 ***ERROR: A BOUNDARY CONDITION HAS BEEN SPECIFIED ON NODE SET 
           ASSEMBLY_BOTTOM_SET_PIN BUT THIS NODE SET IS NOT ACTIVE IN THE MODEL
  *boundary, op=NEW, loadcase=1

 ***ERROR: A BOUNDARY CONDITION HAS BEEN SPECIFIED ON NODE SET 
           ASSEMBLY_TOP_SET_PIN BUT THIS NODE SET IS NOT ACTIVE IN THE MODEL

 ***ERROR: A BOUNDARY CONDITION HAS BEEN SPECIFIED ON NODE SET 
           ASSEMBLY_TOP_SET_PIN BUT THIS NODE SET IS NOT ACTIVE IN THE MODEL
  *boundary, op=NEW, loadcase=2

 ***ERROR: A BOUNDARY CONDITION HAS BEEN SPECIFIED ON NODE SET 
           ASSEMBLY_TOP_SET_PIN BUT THIS NODE SET IS NOT ACTIVE IN THE MODEL

 ***ERROR: A BOUNDARY CONDITION HAS BEEN SPECIFIED ON NODE SET 
           ASSEMBLY_TOP_SET_PIN BUT THIS NODE SET IS NOT ACTIVE IN THE MODEL
  *endstep

 ***ERROR: NODE SET ASSEMBLY_BOTTOM_SET_PIN HAS NOT BEEN DEFINED

 ***ERROR: NODE SET ASSEMBLY_BOTTOM_SET_PIN HAS NOT BEEN DEFINED

 ***ERROR: NODE SET ASSEMBLY_TOP_SET_PIN HAS NOT BEEN DEFINED

 ***ERROR: NODE SET ASSEMBLY_TOP_SET_PIN HAS NOT BEEN DEFINED

 ***ERROR: NODE SET ASSEMBLY_TOP_SET_PIN HAS NOT BEEN DEFINED

 ***ERROR: NODE SET ASSEMBLY_TOP_SET_PIN HAS NOT BEEN DEFINED



                            P R O B L E M   S I Z E


          NUMBER OF ELEMENTS IS                                 41109
          NUMBER OF ELEMENTS DEFINED BY THE USER AND *TIE       41107
          NUMBER OF NODES IS                                    17187
          NUMBER OF NODES DEFINED BY THE USER                   17187
          TOTAL NUMBER OF VARIABLES IN THE MODEL                51567
          (DEGREES OF FREEDOM PLUS MAX NO. OF ANY LAGRANGE MULTIPLIER
           VARIABLES. INCLUDE *PRINT,SOLVE=YES TO GET THE ACTUAL NUMBER.)





          THE PROGRAM HAS DISCOVERED    41 FATAL ERRORS

               ** EXECUTION IS TERMINATED **

 ***ERROR: Failed to locate set "ASSEMBLY_TOP_SET_PIN".



                              END OF USER INPUT PROCESSING



     JOB TIME SUMMARY
       USER TIME (SEC)      =   1.6000    
       SYSTEM TIME (SEC)    =  0.60000    
       TOTAL CPU TIME (SEC) =   2.2000    
       WALLCLOCK TIME (SEC) =          3
